@<TRIPOS>MOLECULE
*****
 24 26 0 0 0
SMALL
GASTEIGER

@<TRIPOS>ATOM
      1 C         139.6140  141.8863  164.9910 C.ar    1  UNL1       -0.0002
      2 C         138.4542  140.9596  164.7759 C.ar    1  UNL1       -0.0000
      3 C         138.2236  139.8154  165.7181 C.ar    1  UNL1       -0.0003
      4 C         139.1528  139.5980  166.8755 C.ar    1  UNL1       -0.0025
      5 C         140.3125  140.5248  167.0905 C.ar    1  UNL1       -0.0022
      6 C         140.5431  141.6689  166.1483 C.ar    1  UNL1       -0.0025
      7 C         141.2417  140.3073  168.2479 C.3     1  UNL1        0.1060
      8 C         141.9882  139.5740  167.1732 C.3     1  UNL1        0.0290
      9 C         140.1725  141.1162  168.9206 C.3     1  UNL1        0.0388
     10 C         140.2917  141.4529  170.3775 C.3     1  UNL1        0.0671
     11 S         141.4801  140.9808  171.1615 S.3     1  UNL1       -0.0807
     12 C         142.5493  140.1720  170.4888 C.2     1  UNL1        0.1482
     13 N         143.7377  139.6998  171.2728 N.pl3   1  UNL1       -0.3380
     14 N         142.4300  139.8352  169.0319 N.2     1  UNL1       -0.2509
     15 H         143.8160  139.9208  172.2290 H       1  UNL1        0.1442
     16 H         144.4394  139.1689  170.8313 H       1  UNL1        0.1442
     17 C         141.4446  144.4198  162.5455 C.ar    1  UNL1        0.1387
     18 C         140.3059  145.3187  162.1644 C.ar    1  UNL1        0.0369
     19 C         138.9365  145.0734  162.7254 C.ar    1  UNL1        0.0031
     20 C         138.7059  143.9293  163.6676 C.ar    1  UNL1        0.0002
     21 C         139.8446  143.0305  164.0487 C.ar    1  UNL1        0.0030
     22 C         141.2139  143.2757  163.4877 C.ar    1  UNL1        0.0369
     23 C         144.0288  144.3100  162.7894 C.3     1  UNL1        0.2525
     24 O         142.8139  144.6650  161.9845 O.3     1  UNL1       -0.4714
@<TRIPOS>BOND
     1    23    24    1
     2    24    17    1
     3    17    18   ar
     4    18    19   ar
     5    19    20   ar
     6    20    21   ar
     7    21     1    1
     8     1     2   ar
     9     2     3   ar
    10     3     4   ar
    11     4     5   ar
    12     5     7    1
    13     7     8    1
    14     7     9    1
    15     9    10    1
    16    10    11    1
    17    11    12    1
    18    12    13    1
    19    12    14    2
    20     5     6   ar
    21    21    22   ar
    22    22    17   ar
    23     6     1   ar
    24    14     7    1
    25    13    15    1
    26    13    16    1
@<TRIPOS>MOLECULE
*****
 24 26 0 0 0
SMALL
GASTEIGER

@<TRIPOS>ATOM
      1 C         138.9672  140.8702  165.1892 C.ar    1  UNL1       -0.0002
      2 C         138.1235  139.7552  165.7321 C.ar    1  UNL1       -0.0000
      3 C         138.4329  139.1668  167.0768 C.ar    1  UNL1       -0.0003
      4 C         139.5860  139.6935  167.8786 C.ar    1  UNL1       -0.0025
      5 C         140.4298  140.8086  167.3356 C.ar    1  UNL1       -0.0022
      6 C         140.1204  141.3969  165.9909 C.ar    1  UNL1       -0.0025
      7 C         141.5830  141.3353  168.1373 C.3     1  UNL1        0.1060
      8 C         142.3040  140.3625  167.2520 C.3     1  UNL1        0.0290
      9 C         140.4615  142.1252  168.7442 C.3     1  UNL1        0.0388
     10 C         140.7435  143.1039  169.8453 C.3     1  UNL1        0.0671
     11 S         142.1471  143.2928  170.3396 S.3     1  UNL1       -0.0807
     12 C         143.2686  142.5029  169.7327 C.2     1  UNL1        0.1482
     13 N         144.6722  142.6917  170.2270 N.pl3   1  UNL1       -0.3380
     14 N         142.9865  141.5242  168.6316 N.2     1  UNL1       -0.2509
     15 H         144.8574  143.3341  170.9497 H       1  UNL1        0.1442
     16 H         145.4082  142.1733  169.8286 H       1  UNL1        0.1442
     17 C         138.3450  143.5355  162.3154 C.ar    1  UNL1        0.1387
     18 C         138.0391  142.6353  161.1552 C.ar    1  UNL1        0.0369
     19 C         138.0425  141.1467  161.3397 C.ar    1  UNL1        0.0031
     20 C         138.3519  140.5583  162.6844 C.ar    1  UNL1        0.0002
     21 C         138.6578  141.4585  163.8445 C.ar    1  UNL1        0.0030
     22 C         138.6544  142.9471  163.6600 C.ar    1  UNL1        0.0369
     23 C         139.6385  145.7748  162.0660 C.3     1  UNL1        0.2525
     24 O         138.3415  145.0241  162.1309 O.3     1  UNL1       -0.4714
@<TRIPOS>BOND
     1    23    24    1
     2    24    17    1
     3    17    18   ar
     4    18    19   ar
     5    19    20   ar
     6    20    21   ar
     7    21     1    1
     8     1     2   ar
     9     2     3   ar
    10     3     4   ar
    11     4     5   ar
    12     5     7    1
    13     7     8    1
    14     7     9    1
    15     9    10    1
    16    10    11    1
    17    11    12    1
    18    12    13    1
    19    12    14    2
    20     5     6   ar
    21    21    22   ar
    22    22    17   ar
    23     6     1   ar
    24    14     7    1
    25    13    15    1
    26    13    16    1
@<TRIPOS>MOLECULE
*****
 24 26 0 0 0
SMALL
GASTEIGER

@<TRIPOS>ATOM
      1 C         140.9881  139.1267  164.9445 C.ar    1  UNL1       -0.0002
      2 C         141.9719  137.9970  164.8699 C.ar    1  UNL1       -0.0000
      3 C         143.0910  137.9100  165.8651 C.ar    1  UNL1       -0.0003
      4 C         143.2261  138.9528  166.9348 C.ar    1  UNL1       -0.0025
      5 C         142.2422  140.0827  167.0093 C.ar    1  UNL1       -0.0022
      6 C         141.1232  140.1696  166.0142 C.ar    1  UNL1       -0.0025
      7 C         142.3773  141.1255  168.0790 C.3     1  UNL1        0.1060
      8 C         142.9693  141.8663  166.9167 C.3     1  UNL1        0.0290
      9 C         141.7384  140.0225  168.8697 C.3     1  UNL1        0.0388
     10 C         141.4402  140.2197  170.3265 C.3     1  UNL1        0.0671
     11 S         141.7808  141.5198  170.9925 S.3     1  UNL1       -0.0807
     12 C         142.4198  142.6227  170.2018 C.2     1  UNL1        0.1482
     13 N         142.7605  143.9229  170.8678 N.pl3   1  UNL1       -0.3380
     14 N         142.7180  142.4256  168.7450 N.2     1  UNL1       -0.2509
     15 H         142.5648  144.0523  171.8239 H       1  UNL1        0.1442
     16 H         143.1798  144.6467  170.3488 H       1  UNL1        0.1442
     17 C         137.9139  140.5433  162.8727 C.ar    1  UNL1        0.1387
     18 C         137.6311  139.3877  161.9592 C.ar    1  UNL1        0.0369
     19 C         138.4673  138.1451  162.0407 C.ar    1  UNL1        0.0031
     20 C         139.5863  138.0581  163.0358 C.ar    1  UNL1        0.0002
     21 C         139.8690  139.2137  163.9493 C.ar    1  UNL1        0.0030
     22 C         139.0328  140.4563  163.8678 C.ar    1  UNL1        0.0369
     23 C         137.7380  143.1301  162.7061 C.3     1  UNL1        0.2525
     24 O         137.0776  141.7860  162.7911 O.3     1  UNL1       -0.4714
@<TRIPOS>BOND
     1    23    24    1
     2    24    17    1
     3    17    18   ar
     4    18    19   ar
     5    19    20   ar
     6    20    21   ar
     7    21     1    1
     8     1     2   ar
     9     2     3   ar
    10     3     4   ar
    11     4     5   ar
    12     5     7    1
    13     7     8    1
    14     7     9    1
    15     9    10    1
    16    10    11    1
    17    11    12    1
    18    12    13    1
    19    12    14    2
    20     5     6   ar
    21    21    22   ar
    22    22    17   ar
    23     6     1   ar
    24    14     7    1
    25    13    15    1
    26    13    16    1
@<TRIPOS>MOLECULE
*****
 24 26 0 0 0
SMALL
GASTEIGER

@<TRIPOS>ATOM
      1 C         139.3294  139.1456  165.3950 C.ar    1  UNL1       -0.0002
      2 C         138.0980  138.7531  166.1561 C.ar    1  UNL1       -0.0000
      3 C         137.9925  139.0584  167.6210 C.ar    1  UNL1       -0.0003
      4 C         139.1186  139.7561  168.3247 C.ar    1  UNL1       -0.0025
      5 C         140.3501  140.1486  167.5634 C.ar    1  UNL1       -0.0022
      6 C         140.4555  139.8434  166.0986 C.ar    1  UNL1       -0.0025
      7 C         141.4762  140.8464  168.2671 C.3     1  UNL1        0.1060
      8 C         142.2332  139.7351  167.6022 C.3     1  UNL1        0.0290
      9 C         140.3281  141.7153  168.6875 C.3     1  UNL1        0.0388
     10 C         140.5690  142.8960  169.5808 C.3     1  UNL1        0.0671
     11 S         141.9579  143.2078  170.0535 S.3     1  UNL1       -0.0807
     12 C         143.1060  142.3389  169.6331 C.2     1  UNL1        0.1482
     13 N         144.4950  142.6507  170.1058 N.pl3   1  UNL1       -0.3380
     14 N         142.8651  141.1582  168.7398 N.2     1  UNL1       -0.2509
     15 H         144.6532  143.4256  170.6920 H       1  UNL1        0.1442
     16 H         145.2486  142.0803  169.8297 H       1  UNL1        0.1442
     17 C         140.7976  137.9309  161.9138 C.ar    1  UNL1        0.1387
     18 C         139.6458  138.2299  161.0005 C.ar    1  UNL1        0.0369
     19 C         138.3886  138.8342  161.5521 C.ar    1  UNL1        0.0031
     20 C         138.2831  139.1394  163.0169 C.ar    1  UNL1        0.0002
     21 C         139.4349  138.8404  163.9301 C.ar    1  UNL1        0.0030
     22 C         140.6921  138.2361  163.3785 C.ar    1  UNL1        0.0369
     23 C         143.3571  138.0604  161.4871 C.3     1  UNL1        0.2525
     24 O         142.0548  137.3266  161.3622 O.3     1  UNL1       -0.4714
@<TRIPOS>BOND
     1    23    24    1
     2    24    17    1
     3    17    18   ar
     4    18    19   ar
     5    19    20   ar
     6    20    21   ar
     7    21     1    1
     8     1     2   ar
     9     2     3   ar
    10     3     4   ar
    11     4     5   ar
    12     5     7    1
    13     7     8    1
    14     7     9    1
    15     9    10    1
    16    10    11    1
    17    11    12    1
    18    12    13    1
    19    12    14    2
    20     5     6   ar
    21    21    22   ar
    22    22    17   ar
    23     6     1   ar
    24    14     7    1
    25    13    15    1
    26    13    16    1
@<TRIPOS>MOLECULE
*****
 24 26 0 0 0
SMALL
GASTEIGER

@<TRIPOS>ATOM
      1 C         140.9389  139.2172  164.4715 C.ar    1  UNL1       -0.0002
      2 C         139.8215  138.2211  164.5670 C.ar    1  UNL1       -0.0000
      3 C         138.8066  138.3354  165.6657 C.ar    1  UNL1       -0.0003
      4 C         138.9092  139.4459  166.6689 C.ar    1  UNL1       -0.0025
      5 C         140.0267  140.4420  166.5733 C.ar    1  UNL1       -0.0022
      6 C         141.0415  140.3276  165.4747 C.ar    1  UNL1       -0.0025
      7 C         140.1294  141.5524  167.5765 C.3     1  UNL1        0.1060
      8 C         140.1336  142.3486  166.3053 C.3     1  UNL1        0.0290
      9 C         140.0895  140.3706  168.4993 C.3     1  UNL1        0.0388
     10 C         140.1538  140.5757  169.9839 C.3     1  UNL1        0.0671
     11 S         140.2579  141.9626  170.5456 S.3     1  UNL1       -0.0807
     12 C         140.2977  143.1445  169.6228 C.2     1  UNL1        0.1482
     13 N         140.4018  144.5314  170.1844 N.pl3   1  UNL1       -0.3380
     14 N         140.2335  142.9393  168.1382 N.2     1  UNL1       -0.2509
     15 H         140.4440  144.6661  171.1588 H       1  UNL1        0.1442
     16 H         140.4280  145.3071  169.5787 H       1  UNL1        0.1442
     17 C         144.0471  140.0223  162.1389 C.ar    1  UNL1        0.1387
     18 C         143.9833  138.8744  161.1755 C.ar    1  UNL1        0.0369
     19 C         142.9048  137.8407  161.3107 C.ar    1  UNL1        0.0031
     20 C         141.8900  137.9550  162.4094 C.ar    1  UNL1        0.0002
     21 C         141.9537  139.1029  163.3728 C.ar    1  UNL1        0.0030
     22 C         143.0323  140.1365  163.2376 C.ar    1  UNL1        0.0369
     23 C         145.6081  141.7992  163.2139 C.3     1  UNL1        0.2525
     24 O         145.1257  141.0559  162.0037 O.3     1  UNL1       -0.4714
@<TRIPOS>BOND
     1    23    24    1
     2    24    17    1
     3    17    18   ar
     4    18    19   ar
     5    19    20   ar
     6    20    21   ar
     7    21     1    1
     8     1     2   ar
     9     2     3   ar
    10     3     4   ar
    11     4     5   ar
    12     5     7    1
    13     7     8    1
    14     7     9    1
    15     9    10    1
    16    10    11    1
    17    11    12    1
    18    12    13    1
    19    12    14    2
    20     5     6   ar
    21    21    22   ar
    22    22    17   ar
    23     6     1   ar
    24    14     7    1
    25    13    15    1
    26    13    16    1
@<TRIPOS>MOLECULE
*****
 24 26 0 0 0
SMALL
GASTEIGER

@<TRIPOS>ATOM
      1 C         141.3483  138.7824  165.0437 C.ar    1  UNL1       -0.0002
      2 C         142.6702  138.1185  165.2921 C.ar    1  UNL1       -0.0000
      3 C         143.4031  138.3642  166.5777 C.ar    1  UNL1       -0.0003
      4 C         142.8140  139.2739  167.6148 C.ar    1  UNL1       -0.0025
      5 C         141.4920  139.9378  167.3663 C.ar    1  UNL1       -0.0022
      6 C         140.7592  139.6920  166.0808 C.ar    1  UNL1       -0.0025
      7 C         140.9029  140.8474  168.4034 C.3     1  UNL1        0.1060
      8 C         139.7143  139.9800  168.1122 C.3     1  UNL1        0.0290
      9 C         142.2961  141.3988  168.3344 C.3     1  UNL1        0.0388
     10 C         142.6875  142.5587  169.2013 C.3     1  UNL1        0.0671
     11 S         141.6856  143.1671  170.1373 S.3     1  UNL1       -0.0807
     12 C         140.2923  142.6157  170.2063 C.2     1  UNL1        0.1482
     13 N         139.2904  143.2240  171.1422 N.pl3   1  UNL1       -0.3380
     14 N         139.9010  141.4558  169.3393 N.2     1  UNL1       -0.2509
     15 H         139.5472  143.9852  171.7113 H       1  UNL1        0.1442
     16 H         138.3760  142.8620  171.1875 H       1  UNL1        0.1442
     17 C         140.6230  138.3271  161.1686 C.ar    1  UNL1        0.1387
     18 C         139.1498  138.0453  161.1871 C.ar    1  UNL1        0.0369
     19 C         138.4095  138.0093  162.4912 C.ar    1  UNL1        0.0031
     20 C         139.1423  138.2550  163.7767 C.ar    1  UNL1        0.0002
     21 C         140.6154  138.5367  163.7581 C.ar    1  UNL1        0.0030
     22 C         141.3558  138.5728  162.4541 C.ar    1  UNL1        0.0369
     23 C         142.1783  139.5678  159.4978 C.3     1  UNL1        0.2525
     24 O         141.3633  138.3631  159.8645 O.3     1  UNL1       -0.4714
@<TRIPOS>BOND
     1    23    24    1
     2    24    17    1
     3    17    18   ar
     4    18    19   ar
     5    19    20   ar
     6    20    21   ar
     7    21     1    1
     8     1     2   ar
     9     2     3   ar
    10     3     4   ar
    11     4     5   ar
    12     5     7    1
    13     7     8    1
    14     7     9    1
    15     9    10    1
    16    10    11    1
    17    11    12    1
    18    12    13    1
    19    12    14    2
    20     5     6   ar
    21    21    22   ar
    22    22    17   ar
    23     6     1   ar
    24    14     7    1
    25    13    15    1
    26    13    16    1
@<TRIPOS>MOLECULE
*****
 24 26 0 0 0
SMALL
GASTEIGER

@<TRIPOS>ATOM
      1 C         139.5580  140.5723  166.5908 C.ar    1  UNL1       -0.0002
      2 C         138.9573  139.3318  165.9990 C.ar    1  UNL1       -0.0000
      3 C         138.4044  139.3578  164.6048 C.ar    1  UNL1       -0.0003
      4 C         138.4523  140.6243  163.8025 C.ar    1  UNL1       -0.0025
      5 C         139.0530  141.8648  164.3944 C.ar    1  UNL1       -0.0022
      6 C         139.6059  141.8388  165.7885 C.ar    1  UNL1       -0.0025
      7 C         139.1009  143.1313  163.5920 C.3     1  UNL1        0.1060
      8 C         137.6322  142.8344  163.5227 C.3     1  UNL1        0.0290
      9 C         140.5529  142.9884  163.9400 C.3     1  UNL1        0.0388
     10 C         141.5428  144.0089  163.4616 C.3     1  UNL1        0.0671
     11 S         141.0806  145.1722  162.6352 S.3     1  UNL1       -0.0807
     12 C         139.6285  145.3151  162.2872 C.2     1  UNL1        0.1482
     13 N         139.1663  146.4785  161.4609 N.pl3   1  UNL1       -0.3380
     14 N         138.6387  144.2946  162.7657 N.2     1  UNL1       -0.2509
     15 H         139.8159  147.1482  161.1468 H       1  UNL1        0.1442
     16 H         138.2132  146.5722  161.2325 H       1  UNL1        0.1442
     17 C         142.1213  140.7873  169.6130 C.ar    1  UNL1        0.1387
     18 C         141.2168  140.4945  170.7732 C.ar    1  UNL1        0.0369
     19 C         139.7594  140.2276  170.5393 C.ar    1  UNL1        0.0031
     20 C         139.2064  140.2536  169.1452 C.ar    1  UNL1        0.0002
     21 C         140.1109  140.5464  167.9850 C.ar    1  UNL1        0.0030
     22 C         141.5684  140.8133  168.2189 C.ar    1  UNL1        0.0369
     23 C         144.0824  142.4658  169.9073 C.3     1  UNL1        0.2525
     24 O         143.5787  141.0542  169.8469 O.3     1  UNL1       -0.4714
@<TRIPOS>BOND
     1    23    24    1
     2    24    17    1
     3    17    18   ar
     4    18    19   ar
     5    19    20   ar
     6    20    21   ar
     7    21     1    1
     8     1     2   ar
     9     2     3   ar
    10     3     4   ar
    11     4     5   ar
    12     5     7    1
    13     7     8    1
    14     7     9    1
    15     9    10    1
    16    10    11    1
    17    11    12    1
    18    12    13    1
    19    12    14    2
    20     5     6   ar
    21    21    22   ar
    22    22    17   ar
    23     6     1   ar
    24    14     7    1
    25    13    15    1
    26    13    16    1
@<TRIPOS>MOLECULE
*****
 24 26 0 0 0
SMALL
GASTEIGER

@<TRIPOS>ATOM
      1 C         141.8511  142.4345  166.5024 C.ar    1  UNL1       -0.0002
      2 C         143.3378  142.4779  166.6965 C.ar    1  UNL1       -0.0000
      3 C         144.2154  143.0751  165.6366 C.ar    1  UNL1       -0.0003
      4 C         143.6062  143.6289  164.3827 C.ar    1  UNL1       -0.0025
      5 C         142.1193  143.5854  164.1887 C.ar    1  UNL1       -0.0022
      6 C         141.2418  142.9882  165.2486 C.ar    1  UNL1       -0.0025
      7 C         141.5101  144.1392  162.9348 C.3     1  UNL1        0.1060
      8 C         141.7474  145.4115  163.6931 C.3     1  UNL1        0.0290
      9 C         141.4844  142.6745  162.6121 C.3     1  UNL1        0.0388
     10 C         140.9318  142.2055  161.2988 C.3     1  UNL1        0.0671
     11 S         140.4050  143.2011  160.3083 S.3     1  UNL1       -0.0807
     12 C         140.4307  144.6657  160.6310 C.2     1  UNL1        0.1482
     13 N         139.9039  145.6614  159.6405 N.pl3   1  UNL1       -0.3380
     14 N         140.9833  145.1347  161.9443 N.2     1  UNL1       -0.2509
     15 H         139.5412  145.3536  158.7785 H       1  UNL1        0.1442
     16 H         139.9208  146.6227  159.8524 H       1  UNL1        0.1442
     17 C         139.2094  140.0756  168.2934 C.ar    1  UNL1        0.1387
     18 C         139.2184  140.6429  169.6819 C.ar    1  UNL1        0.0369
     19 C         140.1049  141.8074  170.0107 C.ar    1  UNL1        0.0031
     20 C         140.9825  142.4046  168.9509 C.ar    1  UNL1        0.0002
     21 C         140.9735  141.8373  167.5623 C.ar    1  UNL1        0.0030
     22 C         140.0870  140.6728  167.2336 C.ar    1  UNL1        0.0369
     23 C         137.8783  138.6828  166.5504 C.3     1  UNL1        0.2525
     24 O         138.3229  138.9111  167.9647 O.3     1  UNL1       -0.4714
@<TRIPOS>BOND
     1    23    24    1
     2    24    17    1
     3    17    18   ar
     4    18    19   ar
     5    19    20   ar
     6    20    21   ar
     7    21     1    1
     8     1     2   ar
     9     2     3   ar
    10     3     4   ar
    11     4     5   ar
    12     5     7    1
    13     7     8    1
    14     7     9    1
    15     9    10    1
    16    10    11    1
    17    11    12    1
    18    12    13    1
    19    12    14    2
    20     5     6   ar
    21    21    22   ar
    22    22    17   ar
    23     6     1   ar
    24    14     7    1
    25    13    15    1
    26    13    16    1
@<TRIPOS>MOLECULE
*****
 24 26 0 0 0
SMALL
GASTEIGER

@<TRIPOS>ATOM
      1 C         142.1329  142.3897  165.9078 C.ar    1  UNL1       -0.0002
      2 C         143.5107  142.6810  166.4242 C.ar    1  UNL1       -0.0000
      3 C         144.4710  143.4775  165.5914 C.ar    1  UNL1       -0.0003
      4 C         144.0534  143.9826  164.2421 C.ar    1  UNL1       -0.0025
      5 C         142.6755  143.6913  163.7258 C.ar    1  UNL1       -0.0022
      6 C         141.7153  142.8948  164.5586 C.ar    1  UNL1       -0.0025
      7 C         142.2578  144.1964  162.3765 C.3     1  UNL1        0.1060
      8 C         143.5412  143.5107  162.0122 C.3     1  UNL1        0.0290
      9 C         141.1196  144.7067  163.2095 C.3     1  UNL1        0.0388
     10 C         140.0093  145.4841  162.5667 C.3     1  UNL1        0.0671
     11 S         140.0374  145.7511  161.0910 S.3     1  UNL1       -0.0807
     12 C         141.1756  145.2408  160.2580 C.2     1  UNL1        0.1482
     13 N         141.2038  145.5077  158.7822 N.pl3   1  UNL1       -0.3380
     14 N         142.2859  144.4634  160.9008 N.2     1  UNL1       -0.2509
     15 H         140.4751  146.0179  158.3603 H       1  UNL1        0.1442
     16 H         141.9509  145.1727  158.2355 H       1  UNL1        0.1442
     17 C         139.9316  141.2037  168.9897 C.ar    1  UNL1        0.1387
     18 C         139.2522  140.0004  168.4063 C.ar    1  UNL1        0.0369
     19 C         139.5331  139.5934  166.9902 C.ar    1  UNL1        0.0031
     20 C         140.4933  140.3898  166.1573 C.ar    1  UNL1        0.0002
     21 C         141.1726  141.5932  166.7407 C.ar    1  UNL1        0.0030
     22 C         140.8918  142.0001  168.1568 C.ar    1  UNL1        0.0369
     23 C         139.7518  143.0528  170.8059 C.3     1  UNL1        0.2525
     24 O         139.6507  141.6107  170.4058 O.3     1  UNL1       -0.4714
@<TRIPOS>BOND
     1    23    24    1
     2    24    17    1
     3    17    18   ar
     4    18    19   ar
     5    19    20   ar
     6    20    21   ar
     7    21     1    1
     8     1     2   ar
     9     2     3   ar
    10     3     4   ar
    11     4     5   ar
    12     5     7    1
    13     7     8    1
    14     7     9    1
    15     9    10    1
    16    10    11    1
    17    11    12    1
    18    12    13    1
    19    12    14    2
    20     5     6   ar
    21    21    22   ar
    22    22    17   ar
    23     6     1   ar
    24    14     7    1
    25    13    15    1
    26    13    16    1
