@<TRIPOS>MOLECULE
*****
 32 36 0 0 0
SMALL
GASTEIGER

@<TRIPOS>ATOM
      1 O         137.5317  140.4304  162.8757 O.2     1  UNL1       -0.2749
      2 C         138.4633  141.3156  163.6494 C.2     1  UNL1        0.2250
      3 N         138.8706  140.9396  165.0433 N.am    1  UNL1       -0.2750
      4 C         138.3464  139.6784  165.6633 C.3     1  UNL1        0.1000
      5 C         138.7538  139.3023  167.0571 C.3     1  UNL1        0.0670
      6 C         139.6854  140.1875  167.8308 C.ar    1  UNL1        0.0583
      7 N         140.0927  139.8115  169.2246 N.ar    1  UNL1       -0.2484
      8 C         141.0243  140.6967  169.9984 C.ar    1  UNL1        0.1023
      9 C         141.5485  141.9579  169.3782 C.ar    1  UNL1        0.0902
     10 C         141.1411  142.3339  167.9845 C.ar    1  UNL1        0.0040
     11 C         140.2096  141.4488  167.2108 C.ar    1  UNL1        0.0113
     12 C         139.8022  141.8248  165.8170 C.3     1  UNL1        0.1213
     13 C         138.9875  142.5768  163.0294 C.3     1  UNL1        0.0704
     14 C         137.6879  142.8983  163.7059 C.3     1  UNL1        0.0087
     15 C         137.4089  144.3583  163.5039 C.3     1  UNL1        0.0005
     16 C         138.5360  144.9391  162.7026 C.3     1  UNL1        0.0005
     17 C         139.5117  143.8382  162.4093 C.3     1  UNL1        0.0095
     18 C         140.8113  143.5167  161.7328 C.3     1  UNL1        0.0162
     19 C         141.0903  142.0567  161.9348 C.3     1  UNL1        0.0544
     20 C         139.9631  141.4759  162.7361 C.3     1  UNL1        0.0243
     21 N         142.2866  141.3089  161.4249 N.3     1  UNL1       -0.2996
     22 H         142.6901  141.8735  160.6774 H       1  UNL1        0.1232
     23 C         143.4079  140.9616  162.3587 C.3     1  UNL1        0.0539
     24 C         143.4278  139.6270  163.0430 C.3     1  UNL1        0.0157
     25 C         144.5492  139.2796  163.9768 C.3     1  UNL1        0.0014
     26 C         145.6506  140.2668  164.2263 C.3     1  UNL1        0.0001
     27 C         145.6306  141.6015  163.5419 C.3     1  UNL1        0.0014
     28 C         144.5093  141.9489  162.6081 C.3     1  UNL1        0.0157
     29 C         142.4801  142.8431  170.1519 C.3     1  UNL1        0.4200
     30 F         143.4116  143.7283  170.9256 F       1  UNL1       -0.1658
     31 F         141.4916  143.9673  170.0559 F       1  UNL1       -0.1658
     32 F         143.4685  141.7190  170.2480 F       1  UNL1       -0.1658
@<TRIPOS>BOND
     1     1     2    2
     2     2     3   am
     3     3     4    1
     4     4     5    1
     5     5     6    1
     6     6     7   ar
     7     7     8   ar
     8     8     9   ar
     9     9    29    1
    10    29    30    1
    11    29    31    1
    12    29    32    1
    13     9    10   ar
    14    10    11   ar
    15    11    12    1
    16    13     2    1
    17    13    14    1
    18    14    15    1
    19    15    16    1
    20    17    16    1
    21    17    18    1
    22    18    19    1
    23    19    21    1
    24    21    23    1
    25    23    24    1
    26    24    25    1
    27    25    26    1
    28    26    27    1
    29    27    28    1
    30    19    20    1
    31    12     3    1
    32    17    13    1
    33    28    23    1
    34    11     6   ar
    35    20    13    1
    36    21    22    1
@<TRIPOS>MOLECULE
*****
 32 36 0 0 0
SMALL
GASTEIGER

@<TRIPOS>ATOM
      1 O         143.4317  138.8416  168.0180 O.2     1  UNL1       -0.2749
      2 C         142.5907  140.0247  167.6400 C.2     1  UNL1        0.2250
      3 N         142.7535  140.6603  166.2910 N.am    1  UNL1       -0.2750
      4 C         143.7573  140.1128  165.3201 C.3     1  UNL1        0.1000
      5 C         143.9200  140.7484  163.9713 C.3     1  UNL1        0.0670
      6 C         143.0790  141.9315  163.5933 C.ar    1  UNL1        0.0583
      7 N         143.2418  142.5671  162.2443 N.ar    1  UNL1       -0.2484
      8 C         142.4008  143.7502  161.8663 C.ar    1  UNL1        0.1023
      9 C         141.3970  144.2978  162.8372 C.ar    1  UNL1        0.0902
     10 C         141.2343  143.6622  164.1861 C.ar    1  UNL1        0.0040
     11 C         142.0753  142.4791  164.5641 C.ar    1  UNL1        0.0113
     12 C         141.9125  141.8435  165.9130 C.3     1  UNL1        0.1213
     13 C         141.5869  140.5723  168.6108 C.3     1  UNL1        0.0704
     14 C         142.9457  141.0496  169.0303 C.3     1  UNL1        0.0087
     15 C         142.7817  141.8921  170.2605 C.3     1  UNL1        0.0005
     16 C         141.3216  141.9356  170.6012 C.3     1  UNL1        0.0005
     17 C         140.5831  141.1199  169.5817 C.3     1  UNL1        0.0095
     18 C         139.2244  140.6426  169.1622 C.3     1  UNL1        0.0162
     19 C         139.3884  139.8001  167.9321 C.3     1  UNL1        0.0544
     20 C         140.8485  139.7566  167.5913 C.3     1  UNL1        0.0243
     21 N         138.2858  139.1203  167.1755 N.3     1  UNL1       -0.2996
     22 H         137.4261  139.6252  167.3910 H       1  UNL1        0.1232
     23 C         138.3594  139.0087  165.6815 C.3     1  UNL1        0.0539
     24 C         138.7589  137.7104  165.0453 C.3     1  UNL1        0.0157
     25 C         138.8326  137.5987  163.5512 C.3     1  UNL1        0.0014
     26 C         138.5066  138.7852  162.6934 C.3     1  UNL1        0.0001
     27 C         138.1071  140.0836  163.3297 C.3     1  UNL1        0.0014
     28 C         138.0335  140.1953  164.8237 C.3     1  UNL1        0.0157
     29 C         140.5560  145.4809  162.4592 C.3     1  UNL1        0.4200
     30 F         139.7150  146.6641  162.0812 F       1  UNL1       -0.1658
     31 F         141.2337  145.5355  161.1221 F       1  UNL1       -0.1658
     32 F         139.8783  145.4264  163.7963 F       1  UNL1       -0.1658
@<TRIPOS>BOND
     1     1     2    2
     2     2     3   am
     3     3     4    1
     4     4     5    1
     5     5     6    1
     6     6     7   ar
     7     7     8   ar
     8     8     9   ar
     9     9    29    1
    10    29    30    1
    11    29    31    1
    12    29    32    1
    13     9    10   ar
    14    10    11   ar
    15    11    12    1
    16    13     2    1
    17    13    14    1
    18    14    15    1
    19    15    16    1
    20    17    16    1
    21    17    18    1
    22    18    19    1
    23    19    21    1
    24    21    23    1
    25    23    24    1
    26    24    25    1
    27    25    26    1
    28    26    27    1
    29    27    28    1
    30    19    20    1
    31    12     3    1
    32    17    13    1
    33    28    23    1
    34    11     6   ar
    35    20    13    1
    36    21    22    1
@<TRIPOS>MOLECULE
*****
 32 36 0 0 0
SMALL
GASTEIGER

@<TRIPOS>ATOM
      1 O         143.1724  138.9010  167.4837 O.2     1  UNL1       -0.2749
      2 C         142.1483  139.8714  166.9740 C.2     1  UNL1        0.2250
      3 N         142.4976  140.8149  165.8614 N.am    1  UNL1       -0.2750
      4 C         143.8708  140.7881  165.2585 C.3     1  UNL1        0.1000
      5 C         144.2199  141.7316  164.1459 C.3     1  UNL1        0.0670
      6 C         143.1958  142.7019  163.6363 C.ar    1  UNL1        0.0583
      7 N         143.5451  143.6454  162.5236 N.ar    1  UNL1       -0.2484
      8 C         142.5210  144.6158  162.0140 C.ar    1  UNL1        0.1023
      9 C         141.1477  144.6426  162.6169 C.ar    1  UNL1        0.0902
     10 C         140.7986  143.6991  163.7295 C.ar    1  UNL1        0.0040
     11 C         141.8226  142.7287  164.2392 C.ar    1  UNL1        0.0113
     12 C         141.4735  141.7852  165.3517 C.3     1  UNL1        0.1213
     13 C         140.7751  139.8982  167.5769 C.3     1  UNL1        0.0704
     14 C         141.7237  140.5230  168.5565 C.3     1  UNL1        0.0087
     15 C         140.9368  140.9361  169.7649 C.3     1  UNL1        0.0005
     16 C         139.5018  140.5665  169.5321 C.3     1  UNL1        0.0005
     17 C         139.4019  139.9250  168.1799 C.3     1  UNL1        0.0095
     18 C         138.4533  139.3002  167.2003 C.3     1  UNL1        0.0162
     19 C         139.2402  138.8872  165.9919 C.3     1  UNL1        0.0544
     20 C         140.6752  139.2567  166.2247 C.3     1  UNL1        0.0243
     21 N         138.6889  138.2214  164.7659 N.3     1  UNL1       -0.2996
     22 H         137.8170  137.7702  165.0428 H       1  UNL1        0.1232
     23 C         138.3860  139.0349  163.5427 C.3     1  UNL1        0.0539
     24 C         138.3313  138.3742  162.1972 C.3     1  UNL1        0.0157
     25 C         138.0284  139.1877  160.9738 C.3     1  UNL1        0.0014
     26 C         137.7803  140.6620  161.0961 C.3     1  UNL1        0.0001
     27 C         137.8350  141.3227  162.4416 C.3     1  UNL1        0.0014
     28 C         138.1378  140.5092  163.6649 C.3     1  UNL1        0.0157
     29 C         140.1237  145.6129  162.1073 C.3     1  UNL1        0.4200
     30 F         139.0996  146.5833  161.5976 F       1  UNL1       -0.1658
     31 F         139.3604  145.4822  163.3920 F       1  UNL1       -0.1658
     32 F         140.8869  145.7436  160.8226 F       1  UNL1       -0.1658
@<TRIPOS>BOND
     1     1     2    2
     2     2     3   am
     3     3     4    1
     4     4     5    1
     5     5     6    1
     6     6     7   ar
     7     7     8   ar
     8     8     9   ar
     9     9    29    1
    10    29    30    1
    11    29    31    1
    12    29    32    1
    13     9    10   ar
    14    10    11   ar
    15    11    12    1
    16    13     2    1
    17    13    14    1
    18    14    15    1
    19    15    16    1
    20    17    16    1
    21    17    18    1
    22    18    19    1
    23    19    21    1
    24    21    23    1
    25    23    24    1
    26    24    25    1
    27    25    26    1
    28    26    27    1
    29    27    28    1
    30    19    20    1
    31    12     3    1
    32    17    13    1
    33    28    23    1
    34    11     6   ar
    35    20    13    1
    36    21    22    1
@<TRIPOS>MOLECULE
*****
 32 36 0 0 0
SMALL
GASTEIGER

@<TRIPOS>ATOM
      1 O         139.9663  137.5906  161.5933 O.2     1  UNL1       -0.2749
      2 C         140.6645  138.6287  162.4209 C.2     1  UNL1        0.2250
      3 N         140.2316  138.8758  163.8357 N.am    1  UNL1       -0.2750
      4 C         139.1006  138.0847  164.4229 C.3     1  UNL1        0.1000
      5 C         138.6677  138.3317  165.8377 C.3     1  UNL1        0.0670
      6 C         139.3659  139.3699  166.6652 C.ar    1  UNL1        0.0583
      7 N         138.9331  139.6169  168.0800 N.ar    1  UNL1       -0.2484
      8 C         139.6313  140.6550  168.9075 C.ar    1  UNL1        0.1023
      9 C         140.7624  141.4461  168.3202 C.ar    1  UNL1        0.0902
     10 C         141.1952  141.1991  166.9055 C.ar    1  UNL1        0.0040
     11 C         140.4970  140.1610  166.0780 C.ar    1  UNL1        0.0113
     12 C         140.9298  139.9139  164.6632 C.3     1  UNL1        0.1213
     13 C         141.7955  139.4198  161.8336 C.3     1  UNL1        0.0704
     14 C         142.2792  138.0183  162.0609 C.3     1  UNL1        0.0087
     15 C         143.7091  137.9431  161.6142 C.3     1  UNL1        0.0005
     16 C         144.1093  139.2983  161.1108 C.3     1  UNL1        0.0005
     17 C         142.9266  140.2109  161.2463 C.3     1  UNL1        0.0095
     18 C         142.4430  141.6125  161.0190 C.3     1  UNL1        0.0162
     19 C         141.0130  141.6876  161.4658 C.3     1  UNL1        0.0544
     20 C         140.6129  140.3325  161.9692 C.3     1  UNL1        0.0243
     21 N         140.1370  142.9043  161.4175 N.3     1  UNL1       -0.2996
     22 H         139.3560  142.6806  160.8008 H       1  UNL1        0.1232
     23 C         139.5465  143.4540  162.6821 C.3     1  UNL1        0.0539
     24 C         138.0787  143.7540  162.7558 C.3     1  UNL1        0.0157
     25 C         137.4881  144.3037  164.0204 C.3     1  UNL1        0.0014
     26 C         138.3654  144.5533  165.2112 C.3     1  UNL1        0.0001
     27 C         139.8333  144.2532  165.1375 C.3     1  UNL1        0.0014
     28 C         140.4238  143.7036  163.8729 C.3     1  UNL1        0.0157
     29 C         141.4606  142.4843  169.1477 C.3     1  UNL1        0.4200
     30 F         142.1588  143.5224  169.9753 F       1  UNL1       -0.1658
     31 F         140.4006  143.4832  168.7889 F       1  UNL1       -0.1658
     32 F         142.5205  141.4854  169.5066 F       1  UNL1       -0.1658
@<TRIPOS>BOND
     1     1     2    2
     2     2     3   am
     3     3     4    1
     4     4     5    1
     5     5     6    1
     6     6     7   ar
     7     7     8   ar
     8     8     9   ar
     9     9    29    1
    10    29    30    1
    11    29    31    1
    12    29    32    1
    13     9    10   ar
    14    10    11   ar
    15    11    12    1
    16    13     2    1
    17    13    14    1
    18    14    15    1
    19    15    16    1
    20    17    16    1
    21    17    18    1
    22    18    19    1
    23    19    21    1
    24    21    23    1
    25    23    24    1
    26    24    25    1
    27    25    26    1
    28    26    27    1
    29    27    28    1
    30    19    20    1
    31    12     3    1
    32    17    13    1
    33    28    23    1
    34    11     6   ar
    35    20    13    1
    36    21    22    1
@<TRIPOS>MOLECULE
*****
 32 36 0 0 0
SMALL
GASTEIGER

@<TRIPOS>ATOM
      1 O         144.4033  139.0759  162.5315 O.2     1  UNL1       -0.2749
      2 C         143.5033  139.9968  163.3009 C.2     1  UNL1        0.2250
      3 N         143.2630  139.7621  164.7629 N.am    1  UNL1       -0.2750
      4 C         143.9228  138.6066  165.4553 C.3     1  UNL1        0.1000
      5 C         143.6826  138.3720  166.9172 C.3     1  UNL1        0.0670
      6 C         142.7825  139.2928  167.6867 C.ar    1  UNL1        0.0583
      7 N         142.5423  139.0581  169.1486 N.ar    1  UNL1       -0.2484
      8 C         141.6422  139.9789  169.9180 C.ar    1  UNL1        0.1023
      9 C         140.9824  141.1344  169.2255 C.ar    1  UNL1        0.0902
     10 C         141.2226  141.3690  167.7636 C.ar    1  UNL1        0.0040
     11 C         142.1227  140.4482  166.9942 C.ar    1  UNL1        0.0113
     12 C         142.3630  140.6829  165.5323 C.3     1  UNL1        0.1213
     13 C         142.8435  141.1522  162.6084 C.3     1  UNL1        0.0704
     14 C         144.3156  141.4320  162.6767 C.3     1  UNL1        0.0087
     15 C         144.5656  142.7604  162.0264 C.3     1  UNL1        0.0005
     16 C         143.2480  143.3016  161.5562 C.3     1  UNL1        0.0005
     17 C         142.1837  142.3077  161.9159 C.3     1  UNL1        0.0095
     18 C         140.7116  142.0279  161.8477 C.3     1  UNL1        0.0162
     19 C         140.4616  140.6996  162.4980 C.3     1  UNL1        0.0544
     20 C         141.7792  140.1583  162.9682 C.3     1  UNL1        0.0243
     21 N         139.1281  140.0300  162.6512 N.3     1  UNL1       -0.2996
     22 H         139.0668  139.3243  161.9173 H       1  UNL1        0.1232
     23 C         138.7754  139.3469  163.9392 C.3     1  UNL1        0.0539
     24 C         138.2893  140.1530  165.1070 C.3     1  UNL1        0.0157
     25 C         137.9366  139.4698  166.3951 C.3     1  UNL1        0.0014
     26 C         138.0701  137.9806  166.5153 C.3     1  UNL1        0.0001
     27 C         138.5562  137.1745  165.3474 C.3     1  UNL1        0.0014
     28 C         138.9089  137.8576  164.0594 C.3     1  UNL1        0.0157
     29 C         140.0823  142.0552  169.9949 C.3     1  UNL1        0.4200
     30 F         139.1823  142.9760  170.7643 F       1  UNL1       -0.1658
     31 F         138.9787  141.0423  169.9161 F       1  UNL1       -0.1658
     32 F         141.1859  143.0681  170.0737 F       1  UNL1       -0.1658
@<TRIPOS>BOND
     1     1     2    2
     2     2     3   am
     3     3     4    1
     4     4     5    1
     5     5     6    1
     6     6     7   ar
     7     7     8   ar
     8     8     9   ar
     9     9    29    1
    10    29    30    1
    11    29    31    1
    12    29    32    1
    13     9    10   ar
    14    10    11   ar
    15    11    12    1
    16    13     2    1
    17    13    14    1
    18    14    15    1
    19    15    16    1
    20    17    16    1
    21    17    18    1
    22    18    19    1
    23    19    21    1
    24    21    23    1
    25    23    24    1
    26    24    25    1
    27    25    26    1
    28    26    27    1
    29    27    28    1
    30    19    20    1
    31    12     3    1
    32    17    13    1
    33    28    23    1
    34    11     6   ar
    35    20    13    1
    36    21    22    1
@<TRIPOS>MOLECULE
*****
 32 36 0 0 0
SMALL
GASTEIGER

@<TRIPOS>ATOM
      1 O         142.3178  138.1031  161.6375 O.2     1  UNL1       -0.2749
      2 C         141.3987  138.8294  162.5743 C.2     1  UNL1        0.2250
      3 N         141.7807  139.0043  164.0144 N.am    1  UNL1       -0.2750
      4 C         143.0818  138.4529  164.5174 C.3     1  UNL1        0.1000
      5 C         143.4637  138.6278  165.9574 C.3     1  UNL1        0.0670
      6 C         142.5446  139.3541  166.8942 C.ar    1  UNL1        0.0583
      7 N         142.9266  139.5290  168.3342 N.ar    1  UNL1       -0.2484
      8 C         142.0075  140.2552  169.2711 C.ar    1  UNL1        0.1023
      9 C         140.7063  140.8066  168.7680 C.ar    1  UNL1        0.0902
     10 C         140.3244  140.6317  167.3280 C.ar    1  UNL1        0.0040
     11 C         141.2435  139.9054  166.3912 C.ar    1  UNL1        0.0113
     12 C         140.8615  139.7305  164.9512 C.3     1  UNL1        0.1213
     13 C         140.0976  139.3807  162.0713 C.3     1  UNL1        0.0704
     14 C         139.8436  137.9983  162.5950 C.3     1  UNL1        0.0087
     15 C         138.3855  137.6952  162.4156 C.3     1  UNL1        0.0005
     16 C         137.7383  138.8904  161.7810 C.3     1  UNL1        0.0005
     17 C         138.7964  139.9321  161.5682 C.3     1  UNL1        0.0095
     18 C         139.0504  141.3145  161.0445 C.3     1  UNL1        0.0162
     19 C         140.5085  141.6176  161.2238 C.3     1  UNL1        0.0544
     20 C         141.1556  140.4225  161.8584 C.3     1  UNL1        0.0243
     21 N         141.1982  142.8921  160.8366 N.3     1  UNL1       -0.2996
     22 H         140.4755  143.5266  160.4969 H       1  UNL1        0.1232
     23 C         141.9976  143.6513  161.8537 C.3     1  UNL1        0.0539
     24 C         143.4783  143.4353  161.9571 C.3     1  UNL1        0.0157
     25 C         144.2778  144.1945  162.9743 C.3     1  UNL1        0.0014
     26 C         143.5964  145.1696  163.8881 C.3     1  UNL1        0.0001
     27 C         142.1156  145.3855  163.7847 C.3     1  UNL1        0.0014
     28 C         141.3162  144.6264  162.7675 C.3     1  UNL1        0.0157
     29 C         139.7872  141.5329  169.7048 C.3     1  UNL1        0.4200
     30 F         138.8680  142.2591  170.6417 F       1  UNL1       -0.1658
     31 F         139.4870  140.2434  170.4100 F       1  UNL1       -0.1658
     32 F         140.0873  142.8223  168.9997 F       1  UNL1       -0.1658
@<TRIPOS>BOND
     1     1     2    2
     2     2     3   am
     3     3     4    1
     4     4     5    1
     5     5     6    1
     6     6     7   ar
     7     7     8   ar
     8     8     9   ar
     9     9    29    1
    10    29    30    1
    11    29    31    1
    12    29    32    1
    13     9    10   ar
    14    10    11   ar
    15    11    12    1
    16    13     2    1
    17    13    14    1
    18    14    15    1
    19    15    16    1
    20    17    16    1
    21    17    18    1
    22    18    19    1
    23    19    21    1
    24    21    23    1
    25    23    24    1
    26    24    25    1
    27    25    26    1
    28    26    27    1
    29    27    28    1
    30    19    20    1
    31    12     3    1
    32    17    13    1
    33    28    23    1
    34    11     6   ar
    35    20    13    1
    36    21    22    1
@<TRIPOS>MOLECULE
*****
 32 36 0 0 0
SMALL
GASTEIGER

@<TRIPOS>ATOM
      1 O         140.9751  142.7028  159.6134 O.2     1  UNL1       -0.2749
      2 C         140.7618  142.6502  161.0973 C.2     1  UNL1        0.2250
      3 N         141.5167  141.6557  161.9287 N.am    1  UNL1       -0.2750
      4 C         142.4848  140.7139  161.2763 C.3     1  UNL1        0.1000
      5 C         143.2396  139.7195  162.1077 C.3     1  UNL1        0.0670
      6 C         143.0263  139.6669  163.5916 C.ar    1  UNL1        0.0583
      7 N         143.7812  138.6724  164.4230 N.ar    1  UNL1       -0.2484
      8 C         143.5679  138.6198  165.9068 C.ar    1  UNL1        0.1023
      9 C         142.5997  139.5617  166.5592 C.ar    1  UNL1        0.0902
     10 C         141.8449  140.5561  165.7278 C.ar    1  UNL1        0.0040
     11 C         142.0582  140.6087  164.2440 C.ar    1  UNL1        0.0113
     12 C         141.3034  141.6031  163.4125 C.3     1  UNL1        0.1213
     13 C         139.7937  143.5921  161.7496 C.3     1  UNL1        0.0704
     14 C         140.8790  144.4096  161.1142 C.3     1  UNL1        0.0087
     15 C         140.5816  145.8567  161.3738 C.3     1  UNL1        0.0005
     16 C         139.3125  145.9336  162.1698 C.3     1  UNL1        0.0005
     17 C         138.8256  144.5340  162.4021 C.3     1  UNL1        0.0095
     18 C         137.7403  143.7165  163.0375 C.3     1  UNL1        0.0162
     19 C         138.0377  142.2693  162.7779 C.3     1  UNL1        0.0544
     20 C         139.3068  142.1925  161.9819 C.3     1  UNL1        0.0243
     21 N         137.2111  141.1037  163.2341 N.3     1  UNL1       -0.2996
     22 H         136.7136  140.7566  162.4141 H       1  UNL1        0.1232
     23 C         137.8733  139.9188  163.8725 C.3     1  UNL1        0.0539
     24 C         138.3554  138.7809  163.0225 C.3     1  UNL1        0.0157
     25 C         139.0176  137.5959  163.6609 C.3     1  UNL1        0.0014
     26 C         139.1977  137.5490  165.1493 C.3     1  UNL1        0.0001
     27 C         138.7155  138.6871  165.9993 C.3     1  UNL1        0.0014
     28 C         138.0533  139.8719  165.3610 C.3     1  UNL1        0.0157
     29 C         142.3864  139.5091  168.0430 C.3     1  UNL1        0.4200
     30 F         142.1731  139.4565  169.5269 F       1  UNL1       -0.1658
     31 F         143.2915  138.3161  168.1309 F       1  UNL1       -0.1658
     32 F         141.4814  140.7021  167.9552 F       1  UNL1       -0.1658
@<TRIPOS>BOND
     1     1     2    2
     2     2     3   am
     3     3     4    1
     4     4     5    1
     5     5     6    1
     6     6     7   ar
     7     7     8   ar
     8     8     9   ar
     9     9    29    1
    10    29    30    1
    11    29    31    1
    12    29    32    1
    13     9    10   ar
    14    10    11   ar
    15    11    12    1
    16    13     2    1
    17    13    14    1
    18    14    15    1
    19    15    16    1
    20    17    16    1
    21    17    18    1
    22    18    19    1
    23    19    21    1
    24    21    23    1
    25    23    24    1
    26    24    25    1
    27    25    26    1
    28    26    27    1
    29    27    28    1
    30    19    20    1
    31    12     3    1
    32    17    13    1
    33    28    23    1
    34    11     6   ar
    35    20    13    1
    36    21    22    1
@<TRIPOS>MOLECULE
*****
 32 36 0 0 0
SMALL
GASTEIGER

@<TRIPOS>ATOM
      1 O         138.3144  139.4403  168.8824 O.2     1  UNL1       -0.2749
      2 C         139.4424  140.1273  168.1713 C.2     1  UNL1        0.2250
      3 N         139.3836  140.3231  166.6853 N.am    1  UNL1       -0.2750
      4 C         138.1969  139.8320  165.9104 C.3     1  UNL1        0.1000
      5 C         138.1381  140.0279  164.4245 C.3     1  UNL1        0.0670
      6 C         139.2661  140.7149  163.7133 C.ar    1  UNL1        0.0583
      7 N         139.2073  140.9107  162.2273 N.ar    1  UNL1       -0.2484
      8 C         140.3353  141.5977  161.5161 C.ar    1  UNL1        0.1023
      9 C         141.5221  142.0888  162.2911 C.ar    1  UNL1        0.0902
     10 C         141.5808  141.8930  163.7770 C.ar    1  UNL1        0.0040
     11 C         140.4529  141.2060  164.4882 C.ar    1  UNL1        0.0113
     12 C         140.5116  141.0101  165.9741 C.3     1  UNL1        0.1213
     13 C         140.6291  140.6184  168.9461 C.3     1  UNL1        0.0704
     14 C         139.4094  141.3103  169.4785 C.3     1  UNL1        0.0087
     15 C         139.8423  142.2291  170.5823 C.3     1  UNL1        0.0005
     16 C         141.3296  142.1050  170.7322 C.3     1  UNL1        0.0005
     17 C         141.8159  141.1096  169.7210 C.3     1  UNL1        0.0095
     18 C         143.0357  140.4177  169.1887 C.3     1  UNL1        0.0162
     19 C         142.6028  139.4989  168.0848 C.3     1  UNL1        0.0544
     20 C         141.1155  139.6230  167.9349 C.3     1  UNL1        0.0243
     21 N         143.4998  138.6118  167.2733 N.3     1  UNL1       -0.2996
     22 H         143.3106  137.6536  167.5673 H       1  UNL1        0.1232
     23 C         143.4169  138.6296  165.7758 C.3     1  UNL1        0.0539
     24 C         144.4906  139.3026  164.9732 C.3     1  UNL1        0.0157
     25 C         144.4077  139.3205  163.4755 C.3     1  UNL1        0.0014
     26 C         143.2511  138.6653  162.7806 C.3     1  UNL1        0.0001
     27 C         142.1773  137.9923  163.5832 C.3     1  UNL1        0.0014
     28 C         142.2603  137.9745  165.0808 C.3     1  UNL1        0.0157
     29 C         142.6501  142.7758  161.5799 C.3     1  UNL1        0.4200
     30 F         143.7780  143.4628  160.8688 F       1  UNL1       -0.1658
     31 F         143.5616  142.4711  162.7315 F       1  UNL1       -0.1658
     32 F         141.7385  143.0805  160.4283 F       1  UNL1       -0.1658
@<TRIPOS>BOND
     1     1     2    2
     2     2     3   am
     3     3     4    1
     4     4     5    1
     5     5     6    1
     6     6     7   ar
     7     7     8   ar
     8     8     9   ar
     9     9    29    1
    10    29    30    1
    11    29    31    1
    12    29    32    1
    13     9    10   ar
    14    10    11   ar
    15    11    12    1
    16    13     2    1
    17    13    14    1
    18    14    15    1
    19    15    16    1
    20    17    16    1
    21    17    18    1
    22    18    19    1
    23    19    21    1
    24    21    23    1
    25    23    24    1
    26    24    25    1
    27    25    26    1
    28    26    27    1
    29    27    28    1
    30    19    20    1
    31    12     3    1
    32    17    13    1
    33    28    23    1
    34    11     6   ar
    35    20    13    1
    36    21    22    1
@<TRIPOS>MOLECULE
*****
 32 36 0 0 0
SMALL
GASTEIGER

@<TRIPOS>ATOM
      1 O         142.1099  139.2882  167.6926 O.2     1  UNL1       -0.2749
      2 C         141.3378  139.6842  166.4690 C.2     1  UNL1        0.2250
      3 N         141.8178  140.8194  165.6141 N.am    1  UNL1       -0.2750
      4 C         143.0698  141.5587  165.9827 C.3     1  UNL1        0.1000
      5 C         143.5497  142.6939  165.1278 C.3     1  UNL1        0.0670
      6 C         142.7776  143.0899  163.9043 C.ar    1  UNL1        0.0583
      7 N         143.2576  144.2251  163.0493 N.ar    1  UNL1       -0.2484
      8 C         142.4855  144.6211  161.8258 C.ar    1  UNL1        0.1023
      9 C         141.2334  143.8818  161.4572 C.ar    1  UNL1        0.0902
     10 C         140.7535  142.7466  162.3121 C.ar    1  UNL1        0.0040
     11 C         141.5256  142.3506  163.5357 C.ar    1  UNL1        0.0113
     12 C         141.0457  141.2154  164.3906 C.3     1  UNL1        0.1213
     13 C         140.0858  138.9449  166.1004 C.3     1  UNL1        0.0704
     14 C         139.7925  139.7774  167.3133 C.3     1  UNL1        0.0087
     15 C         138.3592  139.5527  167.6943 C.3     1  UNL1        0.0005
     16 C         137.7666  138.5813  166.7169 C.3     1  UNL1        0.0005
     17 C         138.8337  138.2057  165.7318 C.3     1  UNL1        0.0095
     18 C         139.1269  137.3732  164.5190 C.3     1  UNL1        0.0162
     19 C         140.5602  137.5980  164.1380 C.3     1  UNL1        0.0544
     20 C         141.1528  138.5693  165.1154 C.3     1  UNL1        0.0243
     21 N         141.2754  136.9628  162.9825 N.3     1  UNL1       -0.2996
     22 H         140.5918  136.3827  162.4961 H       1  UNL1        0.1232
     23 C         141.9320  137.8220  161.9430 C.3     1  UNL1        0.0539
     24 C         141.1273  138.3598  160.7971 C.3     1  UNL1        0.0157
     25 C         141.7839  139.2191  159.7575 C.3     1  UNL1        0.0014
     26 C         143.2452  139.5404  159.8639 C.3     1  UNL1        0.0001
     27 C         144.0499  139.0026  161.0099 C.3     1  UNL1        0.0014
     28 C         143.3933  138.1434  162.0494 C.3     1  UNL1        0.0157
     29 C         140.4612  144.2778  160.2337 C.3     1  UNL1        0.4200
     30 F         139.6891  144.6738  159.0102 F       1  UNL1       -0.1658
     31 F         139.2764  143.5039  160.7309 F       1  UNL1       -0.1658
     32 F         141.6461  145.0518  159.7365 F       1  UNL1       -0.1658
@<TRIPOS>BOND
     1     1     2    2
     2     2     3   am
     3     3     4    1
     4     4     5    1
     5     5     6    1
     6     6     7   ar
     7     7     8   ar
     8     8     9   ar
     9     9    29    1
    10    29    30    1
    11    29    31    1
    12    29    32    1
    13     9    10   ar
    14    10    11   ar
    15    11    12    1
    16    13     2    1
    17    13    14    1
    18    14    15    1
    19    15    16    1
    20    17    16    1
    21    17    18    1
    22    18    19    1
    23    19    21    1
    24    21    23    1
    25    23    24    1
    26    24    25    1
    27    25    26    1
    28    26    27    1
    29    27    28    1
    30    19    20    1
    31    12     3    1
    32    17    13    1
    33    28    23    1
    34    11     6   ar
    35    20    13    1
    36    21    22    1
