@<TRIPOS>MOLECULE
*****
 27 30 0 0 0
SMALL
GASTEIGER

@<TRIPOS>ATOM
      1 C         139.7214  140.2207  167.4983 C.ar    1  UNL1        0.2454
      2 N         139.3341  139.7314  168.8623 N.ar    1  UNL1       -0.1778
      3 C         140.2098  140.0300  170.0428 C.ar    1  UNL1        0.2163
      4 N         139.8224  139.5407  171.4069 N.pl3   1  UNL1       -0.3274
      5 N         141.4730  140.8179  169.8595 N.ar    1  UNL1       -0.2123
      6 C         141.8604  141.3071  168.4955 C.ar    1  UNL1        0.1060
      7 C         143.0374  142.1007  168.0107 C.ar    1  UNL1        0.0395
      8 C         142.8890  142.2925  166.5305 C.ar    1  UNL1        0.0779
      9 N         141.6203  141.6176  166.1004 N.ar    1  UNL1       -0.3154
     10 C         140.9846  141.0086  167.3149 C.ar    1  UNL1        0.1322
     11 H         138.9933  139.0236  171.5273 H       1  UNL1        0.1452
     12 H         140.3972  139.7366  172.1818 H       1  UNL1        0.1452
     13 O         138.8456  139.9221  166.3177 O.3     1  UNL1       -0.4506
     14 C         138.7340  138.5177  165.8027 C.3     1  UNL1        0.2754
     15 C         139.3183  138.2324  160.5627 C.3     1  UNL1        0.0978
     16 C         139.5346  138.0417  162.0348 C.ar    1  UNL1        0.2369
     17 N         138.6886  138.6166  163.1319 N.ar    1  UNL1       -0.1913
     18 C         139.2660  138.1729  164.4433 C.ar    1  UNL1        0.2247
     19 N         140.4689  137.3239  164.1566 N.ar    1  UNL1       -0.0567
     20 O         140.6348  137.2428  162.6680 O.2     1  UNL1       -0.3372
     21 C         141.0819  141.5615  164.7015 C.3     1  UNL1        0.1520
     22 C         139.9551  142.4642  164.2948 C.ar    1  UNL1        0.0818
     23 C         139.6255  143.6714  165.1217 C.ar    1  UNL1        0.0167
     24 C         138.4987  144.5742  164.7150 C.ar    1  UNL1        0.0029
     25 C         137.7016  144.2696  163.4813 C.ar    1  UNL1        0.0207
     26 C         138.0313  143.0624  162.6544 C.ar    1  UNL1        0.0985
     27 N         139.1580  142.1597  163.0611 N.ar    1  UNL1       -0.2462
@<TRIPOS>BOND
     1    15    16    1
     2    16    17   ar
     3    17    18   ar
     4    18    14    1
     5    14    13    1
     6    13     1    1
     7     1     2   ar
     8     2     3   ar
     9     3     4    1
    10     3     5   ar
    11     5     6   ar
    12     6     7   ar
    13     7     8   ar
    14     8     9   ar
    15     9    21    1
    16    21    22    1
    17    22    23   ar
    18    23    24   ar
    19    24    25   ar
    20    25    26   ar
    21    26    27   ar
    22     9    10   ar
    23    18    19   ar
    24    19    20   ar
    25    20    16   ar
    26    10     1   ar
    27    10     6   ar
    28    27    22   ar
    29     4    11    1
    30     4    12    1
@<TRIPOS>MOLECULE
*****
 27 30 0 0 0
SMALL
GASTEIGER

@<TRIPOS>ATOM
      1 C         140.9697  142.6473  162.4322 C.ar    1  UNL1        0.2454
      2 N         142.2799  143.3558  162.2549 N.ar    1  UNL1       -0.1778
      3 C         142.5304  144.6566  162.9584 C.ar    1  UNL1        0.2163
      4 N         143.8407  145.3650  162.7811 N.pl3   1  UNL1       -0.3274
      5 N         141.4706  145.2491  163.8393 N.ar    1  UNL1       -0.2123
      6 C         140.1604  144.5407  164.0166 C.ar    1  UNL1        0.1060
      7 C         138.9364  144.8791  164.8150 C.ar    1  UNL1        0.0395
      8 C         137.9295  143.7873  164.6049 C.ar    1  UNL1        0.0779
      9 N         138.5312  142.7742  163.6766 N.ar    1  UNL1       -0.3154
     10 C         139.9099  143.2398  163.3130 C.ar    1  UNL1        0.1322
     11 H         144.5363  144.9761  162.2030 H       1  UNL1        0.1452
     12 H         144.0051  146.2188  163.2429 H       1  UNL1        0.1452
     13 O         140.7192  141.3464  161.7287 O.3     1  UNL1       -0.4506
     14 C         141.7046  140.2227  161.8566 C.3     1  UNL1        0.2754
     15 C         142.1502  139.5311  167.0724 C.3     1  UNL1        0.0978
     16 C         142.1645  139.2799  165.5936 C.ar    1  UNL1        0.2369
     17 N         141.8058  140.2721  164.5272 N.ar    1  UNL1       -0.1913
     18 C         141.9597  139.5979  163.1962 C.ar    1  UNL1        0.2247
     19 N         142.4134  138.1891  163.4399 N.ar    1  UNL1       -0.0567
     20 O         142.5400  137.9926  164.9216 O.2     1  UNL1       -0.3372
     21 C         137.8701  141.5163  163.1963 C.3     1  UNL1        0.1520
     22 C         138.1972  140.2030  163.8431 C.ar    1  UNL1        0.0818
     23 C         138.2311  140.0914  165.3385 C.ar    1  UNL1        0.0167
     24 C         138.5582  138.7782  165.9854 C.ar    1  UNL1        0.0029
     25 C         138.8513  137.5765  165.1367 C.ar    1  UNL1        0.0207
     26 C         138.8174  137.6882  163.6412 C.ar    1  UNL1        0.0985
     27 N         138.4903  139.0014  162.9945 N.ar    1  UNL1       -0.2462
@<TRIPOS>BOND
     1    15    16    1
     2    16    17   ar
     3    17    18   ar
     4    18    14    1
     5    14    13    1
     6    13     1    1
     7     1     2   ar
     8     2     3   ar
     9     3     4    1
    10     3     5   ar
    11     5     6   ar
    12     6     7   ar
    13     7     8   ar
    14     8     9   ar
    15     9    21    1
    16    21    22    1
    17    22    23   ar
    18    23    24   ar
    19    24    25   ar
    20    25    26   ar
    21    26    27   ar
    22     9    10   ar
    23    18    19   ar
    24    19    20   ar
    25    20    16   ar
    26    10     1   ar
    27    10     6   ar
    28    27    22   ar
    29     4    11    1
    30     4    12    1
@<TRIPOS>MOLECULE
*****
 27 30 0 0 0
SMALL
GASTEIGER

@<TRIPOS>ATOM
      1 C         139.9275  140.1294  167.6413 C.ar    1  UNL1        0.2454
      2 N         138.7682  139.6372  168.4560 N.ar    1  UNL1       -0.1778
      3 C         138.6371  140.0413  169.8945 C.ar    1  UNL1        0.2163
      4 N         137.4778  139.5490  170.7093 N.pl3   1  UNL1       -0.3274
      5 N         139.6654  140.9377  170.5185 N.ar    1  UNL1       -0.2123
      6 C         140.8246  141.4300  169.7038 C.ar    1  UNL1        0.1060
      7 C         141.9853  142.3173  170.0435 C.ar    1  UNL1        0.0395
      8 C         142.8336  142.4616  168.8150 C.ar    1  UNL1        0.0779
      9 N         142.1973  141.6634  167.7159 N.ar    1  UNL1       -0.3154
     10 C         140.9557  141.0258  168.2652 C.ar    1  UNL1        0.1322
     11 H         136.8029  138.9607  170.2998 H       1  UNL1        0.1452
     12 H         137.3918  139.8143  171.6535 H       1  UNL1        0.1452
     13 O         140.0585  139.7253  166.2027 O.3     1  UNL1       -0.4506
     14 C         138.8301  139.4727  165.3798 C.3     1  UNL1        0.2754
     15 C         137.5991  144.1875  163.3459 C.3     1  UNL1        0.0978
     16 C         137.7454  142.7055  163.5255 C.ar    1  UNL1        0.2369
     17 N         138.3827  142.0179  164.6965 N.ar    1  UNL1       -0.1913
     18 C         138.3112  140.5384  164.4604 C.ar    1  UNL1        0.2247
     19 N         137.6297  140.3115  163.1436 N.ar    1  UNL1       -0.0567
     20 O         137.2800  141.6509  162.5659 O.2     1  UNL1       -0.3372
     21 C         142.7123  141.5268  166.3137 C.3     1  UNL1        0.1520
     22 C         142.6872  142.7063  165.3872 C.ar    1  UNL1        0.0818
     23 C         141.3855  143.3766  165.0617 C.ar    1  UNL1        0.0167
     24 C         141.3603  144.5560  164.1352 C.ar    1  UNL1        0.0029
     25 C         142.6370  145.0651  163.5343 C.ar    1  UNL1        0.0207
     26 C         143.9387  144.3947  163.8599 C.ar    1  UNL1        0.0985
     27 N         143.9638  143.2153  164.7863 N.ar    1  UNL1       -0.2462
@<TRIPOS>BOND
     1    15    16    1
     2    16    17   ar
     3    17    18   ar
     4    18    14    1
     5    14    13    1
     6    13     1    1
     7     1     2   ar
     8     2     3   ar
     9     3     4    1
    10     3     5   ar
    11     5     6   ar
    12     6     7   ar
    13     7     8   ar
    14     8     9   ar
    15     9    21    1
    16    21    22    1
    17    22    23   ar
    18    23    24   ar
    19    24    25   ar
    20    25    26   ar
    21    26    27   ar
    22     9    10   ar
    23    18    19   ar
    24    19    20   ar
    25    20    16   ar
    26    10     1   ar
    27    10     6   ar
    28    27    22   ar
    29     4    11    1
    30     4    12    1
@<TRIPOS>MOLECULE
*****
 27 30 0 0 0
SMALL
GASTEIGER

@<TRIPOS>ATOM
      1 C         141.9495  142.6706  164.5580 C.ar    1  UNL1        0.2454
      2 N         143.1124  143.4445  164.0116 N.ar    1  UNL1       -0.1778
      3 C         142.8860  144.7720  163.3511 C.ar    1  UNL1        0.2163
      4 N         144.0490  145.5460  162.8046 N.pl3   1  UNL1       -0.3274
      5 N         141.4965  145.3256  163.2368 N.ar    1  UNL1       -0.2123
      6 C         140.3336  144.5517  163.7832 C.ar    1  UNL1        0.1060
      7 C         138.8621  144.8409  163.8164 C.ar    1  UNL1        0.0395
      8 C         138.1792  143.6922  164.4975 C.ar    1  UNL1        0.0779
      9 N         139.2285  142.6929  164.8853 N.ar    1  UNL1       -0.3154
     10 C         140.5601  143.2241  164.4438 C.ar    1  UNL1        0.1322
     11 H         144.9609  145.1826  162.8796 H       1  UNL1        0.1452
     12 H         143.9003  146.4173  162.3711 H       1  UNL1        0.1452
     13 O         142.1760  141.3430  165.2186 O.3     1  UNL1       -0.4506
     14 C         143.0415  141.2511  166.4402 C.3     1  UNL1        0.2754
     15 C         140.1790  143.5625  170.2277 C.3     1  UNL1        0.0978
     16 C         141.3416  143.0508  169.4297 C.ar    1  UNL1        0.2369
     17 N         141.2593  142.3051  168.1308 N.ar    1  UNL1       -0.1913
     18 C         142.6572  141.9884  167.6888 C.ar    1  UNL1        0.2247
     19 N         143.6035  142.5382  168.7146 N.ar    1  UNL1       -0.0567
     20 O         142.7903  143.1948  169.7905 O.2     1  UNL1       -0.3372
     21 C         138.9885  141.3911  165.5906 C.3     1  UNL1        0.1520
     22 C         138.9572  140.1101  164.8108 C.ar    1  UNL1        0.0818
     23 C         138.9842  138.7938  165.5294 C.ar    1  UNL1        0.0167
     24 C         138.9529  137.5128  164.7496 C.ar    1  UNL1        0.0029
     25 C         138.8946  137.5483  163.2511 C.ar    1  UNL1        0.0207
     26 C         138.8676  138.8647  162.5325 C.ar    1  UNL1        0.0985
     27 N         138.8989  140.1456  163.3123 N.ar    1  UNL1       -0.2462
@<TRIPOS>BOND
     1    15    16    1
     2    16    17   ar
     3    17    18   ar
     4    18    14    1
     5    14    13    1
     6    13     1    1
     7     1     2   ar
     8     2     3   ar
     9     3     4    1
    10     3     5   ar
    11     5     6   ar
    12     6     7   ar
    13     7     8   ar
    14     8     9   ar
    15     9    21    1
    16    21    22    1
    17    22    23   ar
    18    23    24   ar
    19    24    25   ar
    20    25    26   ar
    21    26    27   ar
    22     9    10   ar
    23    18    19   ar
    24    19    20   ar
    25    20    16   ar
    26    10     1   ar
    27    10     6   ar
    28    27    22   ar
    29     4    11    1
    30     4    12    1
@<TRIPOS>MOLECULE
*****
 27 30 0 0 0
SMALL
GASTEIGER

@<TRIPOS>ATOM
      1 C         140.6655  144.0056  163.9404 C.ar    1  UNL1        0.2454
      2 N         140.5486  145.2022  163.0436 N.ar    1  UNL1       -0.1778
      3 C         139.3246  145.3881  162.1968 C.ar    1  UNL1        0.2163
      4 N         139.2076  146.5849  161.3000 N.pl3   1  UNL1       -0.3274
      5 N         138.2174  144.3773  162.2467 N.ar    1  UNL1       -0.2123
      6 C         138.3343  143.1806  163.1435 C.ar    1  UNL1        0.1060
      7 C         137.4123  142.0259  163.4016 C.ar    1  UNL1        0.0395
      8 C         138.0666  141.1264  164.4080 C.ar    1  UNL1        0.0779
      9 N         139.3929  141.7252  164.7718 N.ar    1  UNL1       -0.3154
     10 C         139.5584  142.9947  163.9903 C.ar    1  UNL1        0.1322
     11 H         139.9343  147.2483  161.2672 H       1  UNL1        0.1452
     12 H         138.4043  146.7069  160.7441 H       1  UNL1        0.1452
     13 O         141.8896  143.8197  164.7872 O.3     1  UNL1       -0.4506
     14 C         143.2503  143.8584  164.1572 C.3     1  UNL1        0.2754
     15 C         143.9204  138.9381  162.3619 C.3     1  UNL1        0.0978
     16 C         144.1989  140.3283  162.8520 C.ar    1  UNL1        0.2369
     17 N         143.1709  141.3435  163.2551 N.ar    1  UNL1       -0.1913
     18 C         143.8909  142.5897  163.6772 C.ar    1  UNL1        0.2247
     19 N         145.3639  142.3448  163.5350 N.ar    1  UNL1       -0.0567
     20 O         145.5542  140.9471  163.0250 O.2     1  UNL1       -0.3372
     21 C         140.3804  141.1545  165.7461 C.3     1  UNL1        0.1520
     22 C         140.1985  141.3809  167.2178 C.ar    1  UNL1        0.0818
     23 C         140.5844  142.6959  167.8275 C.ar    1  UNL1        0.0167
     24 C         140.4026  142.9224  169.2992 C.ar    1  UNL1        0.0029
     25 C         139.8349  141.8337  170.1610 C.ar    1  UNL1        0.0207
     26 C         139.4490  140.5187  169.5511 C.ar    1  UNL1        0.0985
     27 N         139.6309  140.2923  168.0796 N.ar    1  UNL1       -0.2462
@<TRIPOS>BOND
     1    15    16    1
     2    16    17   ar
     3    17    18   ar
     4    18    14    1
     5    14    13    1
     6    13     1    1
     7     1     2   ar
     8     2     3   ar
     9     3     4    1
    10     3     5   ar
    11     5     6   ar
    12     6     7   ar
    13     7     8   ar
    14     8     9   ar
    15     9    21    1
    16    21    22    1
    17    22    23   ar
    18    23    24   ar
    19    24    25   ar
    20    25    26   ar
    21    26    27   ar
    22     9    10   ar
    23    18    19   ar
    24    19    20   ar
    25    20    16   ar
    26    10     1   ar
    27    10     6   ar
    28    27    22   ar
    29     4    11    1
    30     4    12    1
@<TRIPOS>MOLECULE
*****
 27 30 0 0 0
SMALL
GASTEIGER

@<TRIPOS>ATOM
      1 C         142.4021  141.8327  167.8846 C.ar    1  UNL1        0.2454
      2 N         143.1604  142.7100  168.8360 N.ar    1  UNL1       -0.1778
      3 C         142.6381  142.9395  170.2232 C.ar    1  UNL1        0.2163
      4 N         143.3965  143.8168  171.1747 N.pl3   1  UNL1       -0.3274
      5 N         141.3573  142.2916  170.6591 N.ar    1  UNL1       -0.2123
      6 C         140.5989  141.4143  169.7077 C.ar    1  UNL1        0.1060
      7 C         139.3178  140.6477  169.8533 C.ar    1  UNL1        0.0395
      8 C         139.0485  139.9445  168.5560 C.ar    1  UNL1        0.0779
      9 N         140.1631  140.2764  167.6086 N.ar    1  UNL1       -0.3154
     10 C         141.1213  141.1848  168.3204 C.ar    1  UNL1        0.1322
     11 H         144.2370  144.2420  170.8886 H       1  UNL1        0.1452
     12 H         143.0536  143.9674  172.0851 H       1  UNL1        0.1452
     13 O         142.9245  141.6032  166.4973 O.3     1  UNL1       -0.4506
     14 C         143.1769  142.7695  165.5885 C.3     1  UNL1        0.2754
     15 C         139.6763  145.2963  162.5483 C.3     1  UNL1        0.0978
     16 C         140.6006  144.2456  163.0887 C.ar    1  UNL1        0.2369
     17 N         141.4460  144.3648  164.3219 N.ar    1  UNL1       -0.1913
     18 C         142.2095  143.0843  164.4861 C.ar    1  UNL1        0.2247
     19 N         141.8360  142.1736  163.3542 N.ar    1  UNL1       -0.0567
     20 O         140.8416  142.8914  162.4906 O.2     1  UNL1       -0.3372
     21 C         140.2961  139.7861  166.1973 C.3     1  UNL1        0.1520
     22 C         139.3564  140.2830  165.1390 C.ar    1  UNL1        0.0818
     23 C         138.7767  141.6628  165.2386 C.ar    1  UNL1        0.0167
     24 C         137.8370  142.1597  164.1803 C.ar    1  UNL1        0.0029
     25 C         137.4770  141.2767  163.0223 C.ar    1  UNL1        0.0207
     26 C         138.0567  139.8968  162.9228 C.ar    1  UNL1        0.0985
     27 N         138.9964  139.4000  163.9811 N.ar    1  UNL1       -0.2462
@<TRIPOS>BOND
     1    15    16    1
     2    16    17   ar
     3    17    18   ar
     4    18    14    1
     5    14    13    1
     6    13     1    1
     7     1     2   ar
     8     2     3   ar
     9     3     4    1
    10     3     5   ar
    11     5     6   ar
    12     6     7   ar
    13     7     8   ar
    14     8     9   ar
    15     9    21    1
    16    21    22    1
    17    22    23   ar
    18    23    24   ar
    19    24    25   ar
    20    25    26   ar
    21    26    27   ar
    22     9    10   ar
    23    18    19   ar
    24    19    20   ar
    25    20    16   ar
    26    10     1   ar
    27    10     6   ar
    28    27    22   ar
    29     4    11    1
    30     4    12    1
@<TRIPOS>MOLECULE
*****
 27 30 0 0 0
SMALL
GASTEIGER

@<TRIPOS>ATOM
      1 C         142.0675  139.8762  168.0651 C.ar    1  UNL1        0.2454
      2 N         142.9252  139.2770  169.1399 N.ar    1  UNL1       -0.1778
      3 C         143.1049  139.9960  170.4440 C.ar    1  UNL1        0.2163
      4 N         143.9627  139.3967  171.5188 N.pl3   1  UNL1       -0.3274
      5 N         142.4269  141.3142  170.6733 N.ar    1  UNL1       -0.2123
      6 C         141.5692  141.9134  169.5985 C.ar    1  UNL1        0.1060
      7 C         140.7814  143.1885  169.5373 C.ar    1  UNL1        0.0395
      8 C         140.1149  143.2575  168.1953 C.ar    1  UNL1        0.0779
      9 N         140.4907  142.0251  167.4271 N.ar    1  UNL1       -0.3154
     10 C         141.3895  141.1944  168.2944 C.ar    1  UNL1        0.1322
     11 H         144.4077  138.5315  171.3683 H       1  UNL1        0.1452
     12 H         144.0806  139.8686  172.3748 H       1  UNL1        0.1452
     13 O         141.8879  139.1573  166.7609 O.3     1  UNL1       -0.4506
     14 C         143.0876  138.7410  165.9625 C.3     1  UNL1        0.2754
     15 C         144.3994  143.2376  163.5251 C.3     1  UNL1        0.0978
     16 C         144.4086  141.8111  163.9890 C.ar    1  UNL1        0.2369
     17 N         143.4155  141.1801  164.9194 N.ar    1  UNL1       -0.1913
     18 C         143.8055  139.7443  165.1093 C.ar    1  UNL1        0.2247
     19 N         145.0397  139.4878  164.2963 N.ar    1  UNL1       -0.0567
     20 O         145.4124  140.7652  163.6039 O.2     1  UNL1       -0.3372
     21 C         140.0458  141.6835  166.0360 C.3     1  UNL1        0.1520
     22 C         139.6931  142.7769  165.0715 C.ar    1  UNL1        0.0818
     23 C         140.7571  143.7088  164.5725 C.ar    1  UNL1        0.0167
     24 C         140.4045  144.8022  163.6081 C.ar    1  UNL1        0.0029
     25 C         138.9876  144.9636  163.1427 C.ar    1  UNL1        0.0207
     26 C         137.9235  144.0315  163.6418 C.ar    1  UNL1        0.0985
     27 N         138.2763  142.9382  164.6062 N.ar    1  UNL1       -0.2462
@<TRIPOS>BOND
     1    15    16    1
     2    16    17   ar
     3    17    18   ar
     4    18    14    1
     5    14    13    1
     6    13     1    1
     7     1     2   ar
     8     2     3   ar
     9     3     4    1
    10     3     5   ar
    11     5     6   ar
    12     6     7   ar
    13     7     8   ar
    14     8     9   ar
    15     9    21    1
    16    21    22    1
    17    22    23   ar
    18    23    24   ar
    19    24    25   ar
    20    25    26   ar
    21    26    27   ar
    22     9    10   ar
    23    18    19   ar
    24    19    20   ar
    25    20    16   ar
    26    10     1   ar
    27    10     6   ar
    28    27    22   ar
    29     4    11    1
    30     4    12    1
@<TRIPOS>MOLECULE
*****
 27 30 0 0 0
SMALL
GASTEIGER

@<TRIPOS>ATOM
      1 C         139.8620  143.4056  164.5397 C.ar    1  UNL1        0.2454
      2 N         139.4402  144.5078  163.6138 N.ar    1  UNL1       -0.1778
      3 C         140.4738  145.3865  162.9741 C.ar    1  UNL1        0.2163
      4 N         140.0521  146.4888  162.0481 N.pl3   1  UNL1       -0.3274
      5 N         141.9293  145.1632  163.2603 N.ar    1  UNL1       -0.2123
      6 C         142.3510  144.0611  164.1862 C.ar    1  UNL1        0.1060
      7 C         143.7012  143.6048  164.6541 C.ar    1  UNL1        0.0395
      8 C         143.5020  142.4440  165.5829 C.ar    1  UNL1        0.0779
      9 N         142.0287  142.1828  165.6892 N.ar    1  UNL1       -0.3154
     10 C         141.3174  143.1822  164.8259 C.ar    1  UNL1        0.1322
     11 H         139.0968  146.6354  161.8603 H       1  UNL1        0.1452
     12 H         140.7305  147.0656  161.6283 H       1  UNL1        0.1452
     13 O         138.8283  142.5268  165.1794 O.3     1  UNL1       -0.4506
     14 C         138.2075  141.4075  164.3972 C.3     1  UNL1        0.2754
     15 C         140.9865  136.9693  163.7182 C.3     1  UNL1        0.0978
     16 C         139.9975  137.9669  164.2444 C.ar    1  UNL1        0.2369
     17 N         139.8119  139.3703  163.7485 N.ar    1  UNL1       -0.1913
     18 C         138.7202  140.0068  164.5565 C.ar    1  UNL1        0.2247
     19 N         138.2311  138.9968  165.5518 N.ar    1  UNL1       -0.0567
     20 O         139.0205  137.7361  165.3589 O.2     1  UNL1       -0.3372
     21 C         141.3806  141.1105  166.5138 C.3     1  UNL1        0.1520
     22 C         140.7604  141.4530  167.8360 C.ar    1  UNL1        0.0818
     23 C         139.9314  140.4352  168.5616 C.ar    1  UNL1        0.0167
     24 C         139.3112  140.7775  169.8838 C.ar    1  UNL1        0.0029
     25 C         139.5202  142.1379  170.4803 C.ar    1  UNL1        0.0207
     26 C         140.3493  143.1558  169.7546 C.ar    1  UNL1        0.0985
     27 N         140.9694  142.8133  168.4325 N.ar    1  UNL1       -0.2462
@<TRIPOS>BOND
     1    15    16    1
     2    16    17   ar
     3    17    18   ar
     4    18    14    1
     5    14    13    1
     6    13     1    1
     7     1     2   ar
     8     2     3   ar
     9     3     4    1
    10     3     5   ar
    11     5     6   ar
    12     6     7   ar
    13     7     8   ar
    14     8     9   ar
    15     9    21    1
    16    21    22    1
    17    22    23   ar
    18    23    24   ar
    19    24    25   ar
    20    25    26   ar
    21    26    27   ar
    22     9    10   ar
    23    18    19   ar
    24    19    20   ar
    25    20    16   ar
    26    10     1   ar
    27    10     6   ar
    28    27    22   ar
    29     4    11    1
    30     4    12    1
@<TRIPOS>MOLECULE
*****
 27 30 0 0 0
SMALL
GASTEIGER

@<TRIPOS>ATOM
      1 C         141.7334  142.7296  164.0258 C.ar    1  UNL1        0.2454
      2 N         140.9308  143.9677  163.7557 N.ar    1  UNL1       -0.1778
      3 C         141.4309  144.9865  162.7750 C.ar    1  UNL1        0.2163
      4 N         140.6284  146.2247  162.5049 N.pl3   1  UNL1       -0.3274
      5 N         142.7337  144.7672  162.0644 N.ar    1  UNL1       -0.2123
      6 C         143.5362  143.5291  162.3345 C.ar    1  UNL1        0.1060
      7 C         144.8467  143.0437  161.7896 C.ar    1  UNL1        0.0395
      8 C         145.1565  141.7249  162.4335 C.ar    1  UNL1        0.0779
      9 N         144.0374  141.3952  163.3764 N.ar    1  UNL1       -0.3154
     10 C         143.0360  142.5103  163.3152 C.ar    1  UNL1        0.1322
     11 H         139.7734  146.3686  162.9713 H       1  UNL1        0.1452
     12 H         140.9566  146.8934  161.8612 H       1  UNL1        0.1452
     13 O         141.2332  141.7107  165.0065 O.3     1  UNL1       -0.4506
     14 C         139.8524  141.1433  164.8600 C.3     1  UNL1        0.2754
     15 C         136.9415  137.5909  167.4655 C.3     1  UNL1        0.0978
     16 C         137.9223  138.6842  167.1606 C.ar    1  UNL1        0.2369
     17 N         138.2217  139.2467  165.8027 N.ar    1  UNL1       -0.1913
     18 C         139.2603  140.3169  165.9630 C.ar    1  UNL1        0.2247
     19 N         139.6029  140.4159  167.4200 N.ar    1  UNL1       -0.0567
     20 O         138.7759  139.4068  168.1601 O.2     1  UNL1       -0.3372
     21 C         143.9374  140.1662  164.2305 C.3     1  UNL1        0.1520
     22 C         142.8907  139.1324  163.9376 C.ar    1  UNL1        0.0818
     23 C         142.3216  138.3049  165.0517 C.ar    1  UNL1        0.0167
     24 C         141.2748  137.2711  164.7589 C.ar    1  UNL1        0.0029
     25 C         140.7973  137.0650  163.3519 C.ar    1  UNL1        0.0207
     26 C         141.3665  137.8926  162.2379 C.ar    1  UNL1        0.0985
     27 N         142.4132  138.9263  162.5307 N.ar    1  UNL1       -0.2462
@<TRIPOS>BOND
     1    15    16    1
     2    16    17   ar
     3    17    18   ar
     4    18    14    1
     5    14    13    1
     6    13     1    1
     7     1     2   ar
     8     2     3   ar
     9     3     4    1
    10     3     5   ar
    11     5     6   ar
    12     6     7   ar
    13     7     8   ar
    14     8     9   ar
    15     9    21    1
    16    21    22    1
    17    22    23   ar
    18    23    24   ar
    19    24    25   ar
    20    25    26   ar
    21    26    27   ar
    22     9    10   ar
    23    18    19   ar
    24    19    20   ar
    25    20    16   ar
    26    10     1   ar
    27    10     6   ar
    28    27    22   ar
    29     4    11    1
    30     4    12    1
