@<TRIPOS>MOLECULE
*****
 34 37 0 0 0
SMALL
GASTEIGER

@<TRIPOS>ATOM
      1 C         137.6683  140.6592  161.5222 C.3     1  UNL1        0.2722
      2 C         138.3985  141.5054  160.5217 C.2     1  UNL1        0.2701
      3 O         138.0707  141.3922  159.0624 O.2     1  UNL1       -0.2707
      4 N         139.4564  142.4647  160.9806 N.am    1  UNL1       -0.2663
      5 H         139.6715  142.5389  161.9385 H       1  UNL1        0.1564
      6 C         140.1865  143.3108  159.9802 C.ar    1  UNL1        0.1343
      7 C         141.3811  142.7585  159.2604 C.ar    1  UNL1        0.0354
      8 C         142.1113  143.6046  158.2600 C.ar    1  UNL1        0.0158
      9 C         141.6469  145.0030  157.9793 C.ar    1  UNL1        0.0769
     10 CL        142.3771  145.8491  156.9788 Cl      1  UNL1       -0.0806
     11 C         140.4524  145.5553  158.6990 C.ar    1  UNL1        0.1116
     12 N         139.7222  144.7091  159.6995 N.ar    1  UNL1       -0.2281
     13 C         137.6077  139.1711  161.3440 C.3     1  UNL1        0.1950
     14 O         138.2911  138.2694  162.3287 O.3     1  UNL1       -0.3519
     15 C         140.5107  137.4026  163.3642 C.3     1  UNL1        0.0320
     16 C         139.7654  138.0164  162.2163 C.3     1  UNL1        0.1156
     17 C         140.4943  138.3772  160.9560 C.3     1  UNL1        0.0320
     18 O         136.9987  141.3013  162.7010 O.3     1  UNL1       -0.4517
     19 C         137.7857  142.1893  163.6188 C.ar    1  UNL1        0.2312
     20 N         137.7956  143.6732  163.4004 N.ar    1  UNL1       -0.1892
     21 C         138.5826  144.5611  164.3181 C.ar    1  UNL1        0.2029
     22 N         139.3597  143.9650  165.4543 N.ar    1  UNL1       -0.2046
     23 C         139.3498  142.4810  165.6727 C.ar    1  UNL1        0.1715
     24 C         138.5628  141.5932  164.7549 C.ar    1  UNL1        0.1098
     25 C         138.7408  140.1766  165.2150 C.ar    1  UNL1        0.1283
     26 N         139.6379  140.1890  166.4172 N.ar    1  UNL1       -0.1619
     27 N         140.0142  141.6132  166.7000 N.ar    1  UNL1       -0.2111
     28 C         140.8995  142.0866  167.8145 C.ar    1  UNL1        0.0949
     29 C         140.3268  142.9118  168.9284 C.ar    1  UNL1        0.0201
     30 C         141.2121  143.3851  170.0429 C.ar    1  UNL1        0.0016
     31 C         142.6703  143.0332  170.0435 C.ar    1  UNL1        0.0010
     32 C         143.2430  142.2080  168.9296 C.ar    1  UNL1        0.0129
     33 C         142.3577  141.7347  167.8151 C.ar    1  UNL1        0.0753
     34 CL        142.9305  140.9094  166.7011 Cl      1  UNL1       -0.0807
@<TRIPOS>BOND
     1    15    16    1
     2    16    17    1
     3    16    14    1
     4    14    13    1
     5     1    13    1
     6     1    18    1
     7    18    19    1
     8    19    20   ar
     9    20    21   ar
    10    21    22   ar
    11    22    23   ar
    12    23    24   ar
    13    24    25   ar
    14    25    26   ar
    15    26    27   ar
    16    27    28    1
    17    28    29   ar
    18    29    30   ar
    19    30    31   ar
    20    31    32   ar
    21    32    33   ar
    22    33    34    1
    23     1     2    1
    24     2     3    2
    25     2     4   am
    26     4     6    1
    27     6     7   ar
    28     7     8   ar
    29     8     9   ar
    30     9    10    1
    31     9    11   ar
    32    11    12   ar
    33    24    19   ar
    34    33    28   ar
    35    12     6   ar
    36    27    23   ar
    37     4     5    1
@<TRIPOS>MOLECULE
*****
 34 37 0 0 0
SMALL
GASTEIGER

@<TRIPOS>ATOM
      1 C         141.1030  144.6505  160.0705 C.3     1  UNL1        0.2722
      2 C         141.1143  145.4577  158.8062 C.2     1  UNL1        0.2701
      3 O         142.3839  146.1085  158.3432 O.2     1  UNL1       -0.2707
      4 N         139.8559  145.6141  158.0050 N.am    1  UNL1       -0.2663
      5 H         139.0225  145.1870  158.3089 H       1  UNL1        0.1564
      6 C         139.8671  146.4213  156.7408 C.ar    1  UNL1        0.1343
      7 C         140.7304  145.9992  155.5891 C.ar    1  UNL1        0.0354
      8 C         140.7417  146.8064  154.3249 C.ar    1  UNL1        0.0158
      9 C         139.8895  148.0357  154.2123 C.ar    1  UNL1        0.0769
     10 CL        139.9007  148.8429  152.9481 Cl      1  UNL1       -0.0806
     11 C         139.0261  148.4578  155.3640 C.ar    1  UNL1        0.1116
     12 N         139.0149  147.6506  156.6283 N.ar    1  UNL1       -0.2281
     13 C         141.1924  143.1546  160.0060 C.3     1  UNL1        0.1950
     14 O         139.9404  142.3299  159.9575 O.3     1  UNL1       -0.3519
     15 C         140.6560  140.7997  161.9315 C.3     1  UNL1        0.0320
     16 C         139.5773  141.4488  161.1160 C.3     1  UNL1        0.1156
     17 C         138.1356  141.2169  161.4590 C.3     1  UNL1        0.0320
     18 O         141.0024  145.3393  161.3992 O.3     1  UNL1       -0.4517
     19 C         140.1488  144.7536  162.4848 C.ar    1  UNL1        0.2312
     20 N         138.6553  144.8696  162.4093 N.ar    1  UNL1       -0.1892
     21 C         137.8018  144.2840  163.4949 C.ar    1  UNL1        0.2029
     22 N         138.4418  143.5824  164.6560 N.ar    1  UNL1       -0.2046
     23 C         139.9354  143.4665  164.7315 C.ar    1  UNL1        0.1715
     24 C         140.7889  144.0521  163.6459 C.ar    1  UNL1        0.1098
     25 C         142.2243  143.7841  163.9894 C.ar    1  UNL1        0.1283
     26 N         142.2579  143.0330  165.2873 N.ar    1  UNL1       -0.1619
     27 N         140.8432  142.8366  165.7459 N.ar    1  UNL1       -0.2111
     28 C         140.4121  142.1338  166.9990 C.ar    1  UNL1        0.0949
     29 C         140.5160  142.8305  168.3233 C.ar    1  UNL1        0.0201
     30 C         140.0849  142.1277  169.5764 C.ar    1  UNL1        0.0016
     31 C         139.5499  140.7281  169.5051 C.ar    1  UNL1        0.0010
     32 C         139.4460  140.0315  168.1808 C.ar    1  UNL1        0.0129
     33 C         139.8771  140.7343  166.9278 C.ar    1  UNL1        0.0753
     34 CL        139.7732  140.0375  165.6035 Cl      1  UNL1       -0.0807
@<TRIPOS>BOND
     1    15    16    1
     2    16    17    1
     3    16    14    1
     4    14    13    1
     5     1    13    1
     6     1    18    1
     7    18    19    1
     8    19    20   ar
     9    20    21   ar
    10    21    22   ar
    11    22    23   ar
    12    23    24   ar
    13    24    25   ar
    14    25    26   ar
    15    26    27   ar
    16    27    28    1
    17    28    29   ar
    18    29    30   ar
    19    30    31   ar
    20    31    32   ar
    21    32    33   ar
    22    33    34    1
    23     1     2    1
    24     2     3    2
    25     2     4   am
    26     4     6    1
    27     6     7   ar
    28     7     8   ar
    29     8     9   ar
    30     9    10    1
    31     9    11   ar
    32    11    12   ar
    33    24    19   ar
    34    33    28   ar
    35    12     6   ar
    36    27    23   ar
    37     4     5    1
@<TRIPOS>MOLECULE
*****
 34 37 0 0 0
SMALL
GASTEIGER

@<TRIPOS>ATOM
      1 C         138.6797  139.7217  161.7154 C.3     1  UNL1        0.2722
      2 C         139.2928  140.8215  160.9001 C.2     1  UNL1        0.2701
      3 O         140.7846  140.9292  160.7872 O.2     1  UNL1       -0.2707
      4 N         138.4139  141.8136  160.1978 N.am    1  UNL1       -0.2663
      5 H         137.4347  141.7429  160.2719 H       1  UNL1        0.1564
      6 C         139.0268  142.9134  159.3825 C.ar    1  UNL1        0.1343
      7 C         139.0438  142.8173  157.8857 C.ar    1  UNL1        0.0354
      8 C         139.6567  143.9170  157.0704 C.ar    1  UNL1        0.0158
      9 C         140.2528  145.1130  157.7519 C.ar    1  UNL1        0.0769
     10 CL        140.8657  146.2128  156.9367 Cl      1  UNL1       -0.0806
     11 C         140.2358  145.2092  159.2487 C.ar    1  UNL1        0.1116
     12 N         139.6228  144.1093  160.0640 N.ar    1  UNL1       -0.2281
     13 C         138.9973  138.2896  161.4022 C.3     1  UNL1        0.1950
     14 O         139.4567  137.3674  162.4924 O.3     1  UNL1       -0.3519
     15 C         141.9807  137.8565  162.1178 C.3     1  UNL1        0.0320
     16 C         140.8521  137.4797  163.0312 C.3     1  UNL1        0.1156
     17 C         141.1189  137.2152  164.4834 C.3     1  UNL1        0.0320
     18 O         137.7492  140.0541  162.8440 O.3     1  UNL1       -0.4517
     19 C         138.2329  139.9785  164.2619 C.ar    1  UNL1        0.2312
     20 N         137.8355  138.8210  165.1292 N.ar    1  UNL1       -0.1892
     21 C         138.3191  138.7454  166.5470 C.ar    1  UNL1        0.2029
     22 N         139.2002  139.8274  167.0976 N.ar    1  UNL1       -0.2046
     23 C         139.5975  140.9849  166.2303 C.ar    1  UNL1        0.1715
     24 C         139.1139  141.0604  164.8125 C.ar    1  UNL1        0.1098
     25 C         139.6664  142.3135  164.2004 C.ar    1  UNL1        0.1283
     26 N         140.4915  143.0124  165.2400 N.ar    1  UNL1       -0.1619
     27 N         140.4489  142.1912  166.4945 N.ar    1  UNL1       -0.2111
     28 C         141.1370  142.5189  167.7865 C.ar    1  UNL1        0.0949
     29 C         140.3978  143.2550  168.8643 C.ar    1  UNL1        0.0201
     30 C         141.0859  143.5827  170.1563 C.ar    1  UNL1        0.0016
     31 C         142.5132  143.1742  170.3705 C.ar    1  UNL1        0.0010
     32 C         143.2524  142.4381  169.2927 C.ar    1  UNL1        0.0129
     33 C         142.5643  142.1104  168.0007 C.ar    1  UNL1        0.0753
     34 CL        143.3036  141.3743  166.9230 Cl      1  UNL1       -0.0807
@<TRIPOS>BOND
     1    15    16    1
     2    16    17    1
     3    16    14    1
     4    14    13    1
     5     1    13    1
     6     1    18    1
     7    18    19    1
     8    19    20   ar
     9    20    21   ar
    10    21    22   ar
    11    22    23   ar
    12    23    24   ar
    13    24    25   ar
    14    25    26   ar
    15    26    27   ar
    16    27    28    1
    17    28    29   ar
    18    29    30   ar
    19    30    31   ar
    20    31    32   ar
    21    32    33   ar
    22    33    34    1
    23     1     2    1
    24     2     3    2
    25     2     4   am
    26     4     6    1
    27     6     7   ar
    28     7     8   ar
    29     8     9   ar
    30     9    10    1
    31     9    11   ar
    32    11    12   ar
    33    24    19   ar
    34    33    28   ar
    35    12     6   ar
    36    27    23   ar
    37     4     5    1
@<TRIPOS>MOLECULE
*****
 34 37 0 0 0
SMALL
GASTEIGER

@<TRIPOS>ATOM
      1 C         141.6636  139.1587  158.6545 C.3     1  UNL1        0.2722
      2 C         141.6947  137.9005  157.8382 C.2     1  UNL1        0.2701
      3 O         140.4317  137.3735  157.2242 O.2     1  UNL1       -0.2707
      4 N         142.9888  137.1694  157.6362 N.am    1  UNL1       -0.2663
      5 H         143.8177  137.5153  158.0392 H       1  UNL1        0.1564
      6 C         143.0199  135.9113  156.8200 C.ar    1  UNL1        0.1343
      7 C         142.9028  135.9832  155.3263 C.ar    1  UNL1        0.0354
      8 C         142.9339  134.7251  154.5102 C.ar    1  UNL1        0.0158
      9 C         143.0821  133.3950  155.1877 C.ar    1  UNL1        0.0769
     10 CL        143.1133  132.1369  154.3715 Cl      1  UNL1       -0.0806
     11 C         143.1992  133.3231  156.6814 C.ar    1  UNL1        0.1116
     12 N         143.1681  134.5813  157.4976 N.ar    1  UNL1       -0.2281
     13 C         142.8792  140.0342  158.7295 C.3     1  UNL1        0.1950
     14 O         144.1234  139.5340  159.4015 O.3     1  UNL1       -0.3519
     15 C         144.0405  137.7937  161.3288 C.3     1  UNL1        0.0320
     16 C         144.1090  139.2196  160.8682 C.3     1  UNL1        0.1156
     17 C         144.1630  140.3310  161.8741 C.3     1  UNL1        0.0320
     18 O         140.4169  139.5412  159.3956 O.3     1  UNL1       -0.4517
     19 C         140.5157  140.2529  160.7124 C.ar    1  UNL1        0.2312
     20 N         140.5671  141.7514  160.7531 N.ar    1  UNL1       -0.1892
     21 C         140.6659  142.4630  162.0698 C.ar    1  UNL1        0.2029
     22 N         140.7133  141.6760  163.3459 N.ar    1  UNL1       -0.2046
     23 C         140.6619  140.1775  163.3053 C.ar    1  UNL1        0.1715
     24 C         140.5631  139.4659  161.9885 C.ar    1  UNL1        0.1098
     25 C         140.5303  137.9910  162.2599 C.ar    1  UNL1        0.1283
     26 N         140.6089  137.7910  163.7445 N.ar    1  UNL1       -0.1619
     27 N         140.6902  139.1424  164.3905 N.ar    1  UNL1       -0.2111
     28 C         140.7834  139.4114  165.8632 C.ar    1  UNL1        0.0949
     29 C         139.5470  139.7432  166.6448 C.ar    1  UNL1        0.0201
     30 C         139.6402  140.0122  168.1176 C.ar    1  UNL1        0.0016
     31 C         140.9700  139.9494  168.8087 C.ar    1  UNL1        0.0010
     32 C         142.2065  139.6176  168.0271 C.ar    1  UNL1        0.0129
     33 C         142.1132  139.3485  166.5544 C.ar    1  UNL1        0.0753
     34 CL        143.3498  139.0167  165.7728 Cl      1  UNL1       -0.0807
@<TRIPOS>BOND
     1    15    16    1
     2    16    17    1
     3    16    14    1
     4    14    13    1
     5     1    13    1
     6     1    18    1
     7    18    19    1
     8    19    20   ar
     9    20    21   ar
    10    21    22   ar
    11    22    23   ar
    12    23    24   ar
    13    24    25   ar
    14    25    26   ar
    15    26    27   ar
    16    27    28    1
    17    28    29   ar
    18    29    30   ar
    19    30    31   ar
    20    31    32   ar
    21    32    33   ar
    22    33    34    1
    23     1     2    1
    24     2     3    2
    25     2     4   am
    26     4     6    1
    27     6     7   ar
    28     7     8   ar
    29     8     9   ar
    30     9    10    1
    31     9    11   ar
    32    11    12   ar
    33    24    19   ar
    34    33    28   ar
    35    12     6   ar
    36    27    23   ar
    37     4     5    1
@<TRIPOS>MOLECULE
*****
 34 37 0 0 0
SMALL
GASTEIGER

@<TRIPOS>ATOM
      1 C         142.8854  138.2459  156.7557 C.3     1  UNL1        0.2722
      2 C         143.4376  136.8934  156.4151 C.2     1  UNL1        0.2701
      3 O         144.6918  136.7788  155.6004 O.2     1  UNL1       -0.2707
      4 N         142.7355  135.6556  156.8893 N.am    1  UNL1       -0.2663
      5 H         141.9123  135.7308  157.4241 H       1  UNL1        0.1564
      6 C         143.2876  134.3031  156.5488 C.ar    1  UNL1        0.1343
      7 C         144.1847  133.5932  157.5189 C.ar    1  UNL1        0.0354
      8 C         144.7368  132.2407  157.1783 C.ar    1  UNL1        0.0158
      9 C         144.3917  131.5981  155.8675 C.ar    1  UNL1        0.0769
     10 CL        144.9438  130.2457  155.5270 Cl      1  UNL1       -0.0806
     11 C         143.4946  132.3080  154.8974 C.ar    1  UNL1        0.1116
     12 N         142.9425  133.6606  155.2380 N.ar    1  UNL1       -0.2281
     13 C         143.5700  139.4832  156.2554 C.3     1  UNL1        0.1950
     14 O         144.7016  140.0824  157.0368 O.3     1  UNL1       -0.3519
     15 C         146.0888  142.2778  157.1130 C.3     1  UNL1        0.0320
     16 C         145.6385  141.0506  156.3774 C.3     1  UNL1        0.1156
     17 C         146.1251  140.7915  154.9823 C.3     1  UNL1        0.0320
     18 O         141.6487  138.3610  157.5967 O.3     1  UNL1       -0.4517
     19 C         141.7507  138.3037  159.0922 C.ar    1  UNL1        0.2312
     20 N         143.0653  137.9903  159.7429 N.ar    1  UNL1       -0.1892
     21 C         143.1672  137.9331  161.2383 C.ar    1  UNL1        0.2029
     22 N         141.9544  138.1892  162.0830 N.ar    1  UNL1       -0.2046
     23 C         140.6398  138.5027  161.4324 C.ar    1  UNL1        0.1715
     24 C         140.5379  138.5599  159.9370 C.ar    1  UNL1        0.1098
     25 C         139.1186  138.8904  159.5813 C.ar    1  UNL1        0.1283
     26 N         138.3433  139.0374  160.8570 N.ar    1  UNL1       -0.1619
     27 N         139.2835  138.7978  162.0010 N.ar    1  UNL1       -0.2111
     28 C         138.9295  138.8449  163.4579 C.ar    1  UNL1        0.0949
     29 C         138.8964  137.5798  164.2630 C.ar    1  UNL1        0.0201
     30 C         138.5424  137.6270  165.7199 C.ar    1  UNL1        0.0016
     31 C         138.2215  138.9393  166.3716 C.ar    1  UNL1        0.0010
     32 C         138.2547  140.2044  165.5665 C.ar    1  UNL1        0.0129
     33 C         138.6086  140.1573  164.1096 C.ar    1  UNL1        0.0753
     34 CL        138.6418  141.4224  163.3045 Cl      1  UNL1       -0.0807
@<TRIPOS>BOND
     1    15    16    1
     2    16    17    1
     3    16    14    1
     4    14    13    1
     5     1    13    1
     6     1    18    1
     7    18    19    1
     8    19    20   ar
     9    20    21   ar
    10    21    22   ar
    11    22    23   ar
    12    23    24   ar
    13    24    25   ar
    14    25    26   ar
    15    26    27   ar
    16    27    28    1
    17    28    29   ar
    18    29    30   ar
    19    30    31   ar
    20    31    32   ar
    21    32    33   ar
    22    33    34    1
    23     1     2    1
    24     2     3    2
    25     2     4   am
    26     4     6    1
    27     6     7   ar
    28     7     8   ar
    29     8     9   ar
    30     9    10    1
    31     9    11   ar
    32    11    12   ar
    33    24    19   ar
    34    33    28   ar
    35    12     6   ar
    36    27    23   ar
    37     4     5    1
@<TRIPOS>MOLECULE
*****
 34 37 0 0 0
SMALL
GASTEIGER

@<TRIPOS>ATOM
      1 C         139.6085  141.3123  159.4458 C.3     1  UNL1        0.2722
      2 C         138.5007  141.5834  158.4714 C.2     1  UNL1        0.2701
      3 O         137.9246  142.9635  158.3557 O.2     1  UNL1       -0.2707
      4 N         137.9691  140.4744  157.6126 N.am    1  UNL1       -0.2663
      5 H         138.3472  139.5686  157.6885 H       1  UNL1        0.1564
      6 C         136.8614  140.7454  156.6382 C.ar    1  UNL1        0.1343
      7 C         137.1488  141.4763  155.3603 C.ar    1  UNL1        0.0354
      8 C         136.0411  141.7474  154.3859 C.ar    1  UNL1        0.0158
      9 C         134.6459  141.2875  154.6894 C.ar    1  UNL1        0.0769
     10 CL        133.5382  141.5585  153.7150 Cl      1  UNL1       -0.0806
     11 C         134.3585  140.5565  155.9674 C.ar    1  UNL1        0.1116
     12 N         135.4663  140.2855  156.9418 N.ar    1  UNL1       -0.2281
     13 C         140.2056  139.9395  159.5395 C.3     1  UNL1        0.1950
     14 O         139.3560  138.7797  159.9672 O.3     1  UNL1       -0.3519
     15 C         138.1246  138.3485  162.2140 C.3     1  UNL1        0.0320
     16 C         139.3805  138.3179  161.3942 C.3     1  UNL1        0.1156
     17 C         140.6607  137.8257  162.0014 C.3     1  UNL1        0.0320
     18 O         140.1190  142.4140  160.3264 O.3     1  UNL1       -0.4517
     19 C         139.5226  142.6243  161.6866 C.ar    1  UNL1        0.2312
     20 N         138.2689  143.4337  161.8389 N.ar    1  UNL1       -0.1892
     21 C         137.6725  143.6440  163.1990 C.ar    1  UNL1        0.2029
     22 N         138.3298  143.0448  164.4069 N.ar    1  UNL1       -0.2046
     23 C         139.5835  142.2354  164.2547 C.ar    1  UNL1        0.1715
     24 C         140.1798  142.0252  162.8945 C.ar    1  UNL1        0.1098
     25 C         141.4135  141.1868  163.0538 C.ar    1  UNL1        0.1283
     26 N         141.5795  140.8789  164.5124 N.ar    1  UNL1       -0.1619
     27 N         140.4484  141.5270  165.2546 N.ar    1  UNL1       -0.2111
     28 C         140.2222  141.4757  166.7365 C.ar    1  UNL1        0.0949
     29 C         140.6623  142.6186  167.6025 C.ar    1  UNL1        0.0201
     30 C         140.4360  142.5673  169.0845 C.ar    1  UNL1        0.0016
     31 C         139.7695  141.3730  169.7005 C.ar    1  UNL1        0.0010
     32 C         139.3294  140.2301  168.8345 C.ar    1  UNL1        0.0129
     33 C         139.5556  140.2814  167.3526 C.ar    1  UNL1        0.0753
     34 CL        139.1154  139.1384  166.4867 Cl      1  UNL1       -0.0807
@<TRIPOS>BOND
     1    15    16    1
     2    16    17    1
     3    16    14    1
     4    14    13    1
     5     1    13    1
     6     1    18    1
     7    18    19    1
     8    19    20   ar
     9    20    21   ar
    10    21    22   ar
    11    22    23   ar
    12    23    24   ar
    13    24    25   ar
    14    25    26   ar
    15    26    27   ar
    16    27    28    1
    17    28    29   ar
    18    29    30   ar
    19    30    31   ar
    20    31    32   ar
    21    32    33   ar
    22    33    34    1
    23     1     2    1
    24     2     3    2
    25     2     4   am
    26     4     6    1
    27     6     7   ar
    28     7     8   ar
    29     8     9   ar
    30     9    10    1
    31     9    11   ar
    32    11    12   ar
    33    24    19   ar
    34    33    28   ar
    35    12     6   ar
    36    27    23   ar
    37     4     5    1
@<TRIPOS>MOLECULE
*****
 34 37 0 0 0
SMALL
GASTEIGER

@<TRIPOS>ATOM
      1 C         140.6802  144.0782  161.3904 C.3     1  UNL1        0.2722
      2 C         140.4939  144.3817  159.9332 C.2     1  UNL1        0.2701
      3 O         139.3026  143.8396  159.2005 O.2     1  UNL1       -0.2707
      4 N         141.4989  145.2274  159.2088 N.am    1  UNL1       -0.2663
      5 H         142.2808  145.5832  159.6898 H       1  UNL1        0.1564
      6 C         141.3127  145.5310  157.7518 C.ar    1  UNL1        0.1343
      7 C         142.2532  144.9494  156.7383 C.ar    1  UNL1        0.0354
      8 C         142.0670  145.2530  155.2812 C.ar    1  UNL1        0.0158
      9 C         140.9401  146.1382  154.8375 C.ar    1  UNL1        0.0769
     10 CL        140.7539  146.4417  153.3805 Cl      1  UNL1       -0.0806
     11 C         139.9996  146.7197  155.8510 C.ar    1  UNL1        0.1116
     12 N         140.1859  146.4161  157.3082 N.ar    1  UNL1       -0.2281
     13 C         141.5812  144.9379  162.2263 C.3     1  UNL1        0.1950
     14 O         143.0685  144.8617  162.0475 O.3     1  UNL1       -0.3519
     15 C         144.5727  142.7435  162.0787 C.3     1  UNL1        0.0320
     16 C         143.8645  143.8448  162.8106 C.3     1  UNL1        0.1156
     17 C         143.9524  143.9293  164.3056 C.3     1  UNL1        0.0320
     18 O         139.9654  142.9148  162.0114 O.3     1  UNL1       -0.4517
     19 C         140.6804  142.0309  162.9900 C.ar    1  UNL1        0.2312
     20 N         141.4776  140.8591  162.4987 N.ar    1  UNL1       -0.1892
     21 C         142.1925  139.9753  163.4773 C.ar    1  UNL1        0.2029
     22 N         142.1103  140.2632  164.9471 N.ar    1  UNL1       -0.2046
     23 C         141.3131  141.4350  165.4383 C.ar    1  UNL1        0.1715
     24 C         140.5982  142.3188  164.4598 C.ar    1  UNL1        0.1098
     25 C         139.8943  143.3936  165.2342 C.ar    1  UNL1        0.1283
     26 N         140.1743  143.1739  166.6914 N.ar    1  UNL1       -0.1619
     27 N         141.0512  141.9634  166.8175 N.ar    1  UNL1       -0.2111
     28 C         141.5743  141.3832  168.0980 C.ar    1  UNL1        0.0949
     29 C         142.8777  141.8652  168.6626 C.ar    1  UNL1        0.0201
     30 C         143.4008  141.2851  169.9431 C.ar    1  UNL1        0.0016
     31 C         142.6204  140.2228  170.6591 C.ar    1  UNL1        0.0010
     32 C         141.3171  139.7407  170.0945 C.ar    1  UNL1        0.0129
     33 C         140.7940  140.3209  168.8140 C.ar    1  UNL1        0.0753
     34 CL        139.4906  139.8388  168.2495 Cl      1  UNL1       -0.0807
@<TRIPOS>BOND
     1    15    16    1
     2    16    17    1
     3    16    14    1
     4    14    13    1
     5     1    13    1
     6     1    18    1
     7    18    19    1
     8    19    20   ar
     9    20    21   ar
    10    21    22   ar
    11    22    23   ar
    12    23    24   ar
    13    24    25   ar
    14    25    26   ar
    15    26    27   ar
    16    27    28    1
    17    28    29   ar
    18    29    30   ar
    19    30    31   ar
    20    31    32   ar
    21    32    33   ar
    22    33    34    1
    23     1     2    1
    24     2     3    2
    25     2     4   am
    26     4     6    1
    27     6     7   ar
    28     7     8   ar
    29     8     9   ar
    30     9    10    1
    31     9    11   ar
    32    11    12   ar
    33    24    19   ar
    34    33    28   ar
    35    12     6   ar
    36    27    23   ar
    37     4     5    1
@<TRIPOS>MOLECULE
*****
 34 37 0 0 0
SMALL
GASTEIGER

@<TRIPOS>ATOM
      1 C         141.2793  144.4773  159.5695 C.3     1  UNL1        0.2722
      2 C         141.2217  145.4136  158.3989 C.2     1  UNL1        0.2701
      3 O         142.4427  146.1857  157.9953 O.2     1  UNL1       -0.2707
      4 N         139.9431  145.5777  157.6320 N.am    1  UNL1       -0.2663
      5 H         139.1417  145.0709  157.8969 H       1  UNL1        0.1564
      6 C         139.8855  146.5139  156.4615 C.ar    1  UNL1        0.1343
      7 C         140.6615  146.2054  155.2155 C.ar    1  UNL1        0.0354
      8 C         140.6039  147.1416  154.0450 C.ar    1  UNL1        0.0158
      9 C         139.7702  148.3864  154.1204 C.ar    1  UNL1        0.0769
     10 CL        139.7126  149.3226  152.9499 Cl      1  UNL1       -0.0806
     11 C         138.9941  148.6948  155.3665 C.ar    1  UNL1        0.1116
     12 N         139.0518  147.7586  156.5370 N.ar    1  UNL1       -0.2281
     13 C         140.4419  143.2329  159.5764 C.3     1  UNL1        0.1950
     14 O         139.0751  143.2520  160.1940 O.3     1  UNL1       -0.3519
     15 C         138.9850  140.6893  160.6116 C.3     1  UNL1        0.0320
     16 C         138.6042  142.0845  161.0096 C.3     1  UNL1        0.1156
     17 C         137.7524  142.3121  162.2231 C.3     1  UNL1        0.0320
     18 O         142.1742  144.7856  160.7331 O.3     1  UNL1       -0.4517
     19 C         142.3455  143.7815  161.8343 C.ar    1  UNL1        0.2312
     20 N         143.4675  142.7877  161.7754 N.ar    1  UNL1       -0.1892
     21 C         143.6386  141.7837  162.8765 C.ar    1  UNL1        0.2029
     22 N         142.6878  141.7734  164.0366 N.ar    1  UNL1       -0.2046
     23 C         141.5658  142.7671  164.0955 C.ar    1  UNL1        0.1715
     24 C         141.3946  143.7712  162.9944 C.ar    1  UNL1        0.1098
     25 C         140.2035  144.6215  163.3234 C.ar    1  UNL1        0.1283
     26 N         139.6385  144.1430  164.6279 N.ar    1  UNL1       -0.1619
     27 N         140.4804  142.9969  165.1051 N.ar    1  UNL1       -0.2111
     28 C         140.2734  142.2174  166.3698 C.ar    1  UNL1        0.0949
     29 C         140.7399  142.7773  167.6808 C.ar    1  UNL1        0.0201
     30 C         140.5329  141.9978  168.9456 C.ar    1  UNL1        0.0016
     31 C         139.8594  140.6584  168.8993 C.ar    1  UNL1        0.0010
     32 C         139.3928  140.0985  167.5883 C.ar    1  UNL1        0.0129
     33 C         139.5999  140.8779  166.3236 C.ar    1  UNL1        0.0753
     34 CL        139.1333  140.3179  165.0126 Cl      1  UNL1       -0.0807
@<TRIPOS>BOND
     1    15    16    1
     2    16    17    1
     3    16    14    1
     4    14    13    1
     5     1    13    1
     6     1    18    1
     7    18    19    1
     8    19    20   ar
     9    20    21   ar
    10    21    22   ar
    11    22    23   ar
    12    23    24   ar
    13    24    25   ar
    14    25    26   ar
    15    26    27   ar
    16    27    28    1
    17    28    29   ar
    18    29    30   ar
    19    30    31   ar
    20    31    32   ar
    21    32    33   ar
    22    33    34    1
    23     1     2    1
    24     2     3    2
    25     2     4   am
    26     4     6    1
    27     6     7   ar
    28     7     8   ar
    29     8     9   ar
    30     9    10    1
    31     9    11   ar
    32    11    12   ar
    33    24    19   ar
    34    33    28   ar
    35    12     6   ar
    36    27    23   ar
    37     4     5    1
@<TRIPOS>MOLECULE
*****
 34 37 0 0 0
SMALL
GASTEIGER

@<TRIPOS>ATOM
      1 C         137.6748  140.7163  161.6434 C.3     1  UNL1        0.2722
      2 C         138.2251  141.3335  160.3919 C.2     1  UNL1        0.2701
      3 O         138.1577  142.8191  160.1959 O.2     1  UNL1       -0.2707
      4 N         138.8429  140.4650  159.3364 N.am    1  UNL1       -0.2663
      5 H         138.8872  139.4900  159.4650 H       1  UNL1        0.1564
      6 C         139.3933  141.0822  158.0849 C.ar    1  UNL1        0.1343
      7 C         140.7945  141.6171  158.0660 C.ar    1  UNL1        0.0354
      8 C         141.3448  142.2342  156.8145 C.ar    1  UNL1        0.0158
      9 C         140.4939  142.3164  155.5819 C.ar    1  UNL1        0.0769
     10 CL        141.0443  142.9335  154.3304 Cl      1  UNL1       -0.0806
     11 C         139.0927  141.7814  155.6008 C.ar    1  UNL1        0.1116
     12 N         138.5424  141.1643  156.8524 N.ar    1  UNL1       -0.2281
     13 C         137.7380  139.2303  161.8374 C.3     1  UNL1        0.1950
     14 O         138.9926  138.4822  161.4962 O.3     1  UNL1       -0.3519
     15 C         140.3344  137.4409  163.4622 C.3     1  UNL1        0.0320
     16 C         140.1647  138.5174  162.4315 C.3     1  UNL1        0.1156
     17 C         141.1671  139.6292  162.3363 C.3     1  UNL1        0.0320
     18 O         137.0611  141.5853  162.7010 O.3     1  UNL1       -0.4517
     19 C         137.9388  142.3970  163.6070 C.ar    1  UNL1        0.2312
     20 N         138.1319  143.8620  163.3491 N.ar    1  UNL1       -0.1892
     21 C         139.0095  144.6736  164.2552 C.ar    1  UNL1        0.2029
     22 N         139.6940  144.0204  165.4191 N.ar    1  UNL1       -0.2046
     23 C         139.5009  142.5554  165.6770 C.ar    1  UNL1        0.1715
     24 C         138.6233  141.7437  164.7710 C.ar    1  UNL1        0.1098
     25 C         138.6218  140.3297  165.2717 C.ar    1  UNL1        0.1283
     26 N         139.4985  140.2675  166.4872 N.ar    1  UNL1       -0.1619
     27 N         140.0418  141.6431  166.7376 N.ar    1  UNL1       -0.2111
     28 C         140.9642  142.0372  167.8530 C.ar    1  UNL1        0.0949
     29 C         140.4010  142.4973  169.1649 C.ar    1  UNL1        0.0201
     30 C         141.3233  142.8913  170.2802 C.ar    1  UNL1        0.0016
     31 C         142.8089  142.8253  170.0837 C.ar    1  UNL1        0.0010
     32 C         143.3721  142.3652  168.7718 C.ar    1  UNL1        0.0129
     33 C         142.4498  141.9711  167.6565 C.ar    1  UNL1        0.0753
     34 CL        143.0130  141.5111  166.3446 Cl      1  UNL1       -0.0807
@<TRIPOS>BOND
     1    15    16    1
     2    16    17    1
     3    16    14    1
     4    14    13    1
     5     1    13    1
     6     1    18    1
     7    18    19    1
     8    19    20   ar
     9    20    21   ar
    10    21    22   ar
    11    22    23   ar
    12    23    24   ar
    13    24    25   ar
    14    25    26   ar
    15    26    27   ar
    16    27    28    1
    17    28    29   ar
    18    29    30   ar
    19    30    31   ar
    20    31    32   ar
    21    32    33   ar
    22    33    34    1
    23     1     2    1
    24     2     3    2
    25     2     4   am
    26     4     6    1
    27     6     7   ar
    28     7     8   ar
    29     8     9   ar
    30     9    10    1
    31     9    11   ar
    32    11    12   ar
    33    24    19   ar
    34    33    28   ar
    35    12     6   ar
    36    27    23   ar
    37     4     5    1
