@<TRIPOS>MOLECULE
*****
 29 31 0 0 0
SMALL
GASTEIGER

@<TRIPOS>ATOM
      1 N         142.7052  142.8321  163.4763 N.am    1  UNL1       -0.2588
      2 C         143.0214  143.9961  162.5847 C.2     1  UNL1        0.3219
      3 O         144.3432  144.6983  162.4869 O.2     1  UNL1       -0.2510
      4 N         141.7836  144.3348  161.8080 N.am    1  UNL1       -0.1885
      5 C         140.7024  143.3800  162.2196 C.3     1  UNL1        0.1388
      6 C         141.2720  142.4512  163.2507 C.3     1  UNL1        0.1208
      7 C         140.5374  141.3373  163.9358 C.ar    1  UNL1       -0.0025
      8 C         139.3927  141.6472  164.8545 C.ar    1  UNL1       -0.0018
      9 C         138.6581  140.5333  165.5396 C.ar    1  UNL1        0.0111
     10 C         139.0681  139.1094  165.3062 C.ar    1  UNL1        0.0577
     11 CL        138.3335  137.9954  165.9913 Cl      1  UNL1       -0.0822
     12 C         140.2126  138.7994  164.3876 C.ar    1  UNL1        0.0111
     13 C         140.9473  139.9134  163.7025 C.ar    1  UNL1       -0.0018
     14 N         141.6503  145.4349  160.7972 N.3     1  UNL1       -0.1073
     15 H         142.5850  145.8171  160.6530 H       1  UNL1        0.1715
     16 S         141.0884  145.1406  159.4380 S.O2    1  UNL1        0.0573
     17 C         140.5265  144.8463  158.0787 C.3     1  UNL1        0.1974
     18 O         142.3897  144.5122  159.0361 O.2     1  UNL1       -0.1561
     19 O         139.7870  145.7691  159.8400 O.2     1  UNL1       -0.1561
     20 C         143.6554  142.1658  164.4267 C.3     1  UNL1        0.1000
     21 C         143.6124  142.5006  165.8882 C.3     1  UNL1        0.0479
     22 C         140.7541  140.3376  168.6088 C.ar    1  UNL1        0.1387
     23 C         140.6775  141.8295  168.4739 C.ar    1  UNL1        0.0366
     24 C         141.6302  142.5505  167.5670 C.ar    1  UNL1       -0.0011
     25 C         142.6596  141.7796  166.7951 C.ar    1  UNL1       -0.0203
     26 C         142.7363  140.2877  166.9299 C.ar    1  UNL1       -0.0011
     27 C         141.7835  139.5666  167.8368 C.ar    1  UNL1        0.0366
     28 C         138.5825  140.3199  170.0349 C.3     1  UNL1        0.2525
     29 O         139.8013  139.6166  169.5156 O.3     1  UNL1       -0.4714
@<TRIPOS>BOND
     1    28    29    1
     2    29    22    1
     3    22    23   ar
     4    23    24   ar
     5    24    25   ar
     6    25    21    1
     7    21    20    1
     8    20     1    1
     9     1     2   am
    10     2     3    2
    11     2     4   am
    12     4    14    1
    13    14    16    1
    14    16    17    1
    15    16    18    2
    16    16    19    2
    17     4     5    1
    18     5     6    1
    19     6     7    1
    20     7     8   ar
    21     8     9   ar
    22     9    10   ar
    23    10    11    1
    24    10    12   ar
    25    12    13   ar
    26    25    26   ar
    27    26    27   ar
    28    27    22   ar
    29     6     1    1
    30    13     7   ar
    31    14    15    1
@<TRIPOS>MOLECULE
*****
 29 31 0 0 0
SMALL
GASTEIGER

@<TRIPOS>ATOM
      1 N         139.1757  139.7417  165.6424 N.am    1  UNL1       -0.2588
      2 C         138.6277  139.2880  166.9630 C.2     1  UNL1        0.3219
      3 O         137.5421  138.2728  167.1652 O.2     1  UNL1       -0.2510
      4 N         139.3559  140.0277  168.0459 N.am    1  UNL1       -0.1885
      5 C         140.3539  140.9385  167.3946 C.3     1  UNL1        0.1388
      6 C         140.2426  140.7618  165.9092 C.3     1  UNL1        0.1208
      7 C         141.0554  141.4792  164.8726 C.ar    1  UNL1       -0.0025
      8 C         141.1260  142.9776  164.8796 C.ar    1  UNL1       -0.0018
      9 C         141.9389  143.6950  163.8430 C.ar    1  UNL1        0.0111
     10 C         142.6810  142.9141  162.7993 C.ar    1  UNL1        0.0577
     11 CL        143.4938  143.6315  161.7626 Cl      1  UNL1       -0.0822
     12 C         142.6104  141.4158  162.7921 C.ar    1  UNL1        0.0111
     13 C         141.7976  140.6984  163.8288 C.ar    1  UNL1       -0.0018
     14 N         139.1264  139.8821  169.5210 N.3     1  UNL1       -0.1073
     15 H         139.0828  138.8816  169.7149 H       1  UNL1        0.1715
     16 S         140.1053  140.4695  170.4939 S.O2    1  UNL1        0.0573
     17 C         141.0842  141.0569  171.4669 C.3     1  UNL1        0.1974
     18 O         139.2293  141.6776  170.6459 O.2     1  UNL1       -0.1561
     19 O         140.9813  139.2613  170.3419 O.2     1  UNL1       -0.1561
     20 C         138.7343  139.2599  164.2922 C.3     1  UNL1        0.1000
     21 C         137.7252  140.0456  163.5086 C.3     1  UNL1        0.0479
     22 C         138.5493  144.3401  162.4463 C.ar    1  UNL1        0.1387
     23 C         137.7596  144.0104  163.6783 C.ar    1  UNL1        0.0366
     24 C         137.4849  142.5789  164.0323 C.ar    1  UNL1       -0.0011
     25 C         137.9999  141.4771  163.1545 C.ar    1  UNL1       -0.0203
     26 C         138.7895  141.8067  161.9226 C.ar    1  UNL1       -0.0011
     27 C         139.0642  143.2382  161.5685 C.ar    1  UNL1        0.0366
     28 C         139.9749  146.1143  161.1934 C.3     1  UNL1        0.2525
     29 O         138.8240  145.7716  162.0923 O.3     1  UNL1       -0.4714
@<TRIPOS>BOND
     1    28    29    1
     2    29    22    1
     3    22    23   ar
     4    23    24   ar
     5    24    25   ar
     6    25    21    1
     7    21    20    1
     8    20     1    1
     9     1     2   am
    10     2     3    2
    11     2     4   am
    12     4    14    1
    13    14    16    1
    14    16    17    1
    15    16    18    2
    16    16    19    2
    17     4     5    1
    18     5     6    1
    19     6     7    1
    20     7     8   ar
    21     8     9   ar
    22     9    10   ar
    23    10    11    1
    24    10    12   ar
    25    12    13   ar
    26    25    26   ar
    27    26    27   ar
    28    27    22   ar
    29     6     1    1
    30    13     7   ar
    31    14    15    1
@<TRIPOS>MOLECULE
*****
 29 31 0 0 0
SMALL
GASTEIGER

@<TRIPOS>ATOM
      1 N         140.3439  138.8743  165.0920 N.am    1  UNL1       -0.2588
      2 C         140.3124  138.0483  163.8403 C.2     1  UNL1        0.3219
      3 O         139.0935  137.4298  163.2225 O.2     1  UNL1       -0.2510
      4 N         141.7139  137.9493  163.3148 N.am    1  UNL1       -0.1885
      5 C         142.6116  138.7142  164.2417 C.3     1  UNL1        0.1388
      6 C         141.7649  139.2859  165.3401 C.3     1  UNL1        0.1208
      7 C         142.2534  140.1222  166.4854 C.ar    1  UNL1       -0.0025
      8 C         142.3069  139.5427  167.8680 C.ar    1  UNL1       -0.0018
      9 C         142.7954  140.3791  169.0134 C.ar    1  UNL1        0.0111
     10 C         143.2304  141.7949  168.7762 C.ar    1  UNL1        0.0577
     11 CL        143.7189  142.6313  169.9216 Cl      1  UNL1       -0.0822
     12 C         143.1769  142.3744  167.3938 C.ar    1  UNL1        0.0111
     13 C         142.6884  141.5380  166.2484 C.ar    1  UNL1       -0.0018
     14 N         142.1425  137.2146  162.0794 N.3     1  UNL1       -0.1073
     15 H         141.3278  136.6997  161.7455 H       1  UNL1        0.1715
     16 S         142.6856  137.9741  160.9055 S.O2    1  UNL1        0.0573
     17 C         143.2288  138.7336  159.7316 C.3     1  UNL1        0.1974
     18 O         141.2904  138.3507  160.5036 O.2     1  UNL1       -0.1561
     19 O         144.0809  137.5974  161.3074 O.2     1  UNL1       -0.1561
     20 C         139.1620  139.2269  165.9456 C.3     1  UNL1        0.1000
     21 C         137.9826  139.9290  165.3406 C.3     1  UNL1        0.0479
     22 C         138.5553  143.8319  163.1750 C.ar    1  UNL1        0.1387
     23 C         137.6872  142.7638  162.5790 C.ar    1  UNL1        0.0366
     24 C         137.4962  141.4628  163.3008 C.ar    1  UNL1       -0.0011
     25 C         138.1735  141.2300  164.6188 C.ar    1  UNL1       -0.0203
     26 C         139.0417  142.2981  165.2148 C.ar    1  UNL1       -0.0011
     27 C         139.2326  143.5990  164.4930 C.ar    1  UNL1        0.0366
     28 C         140.1298  145.6233  162.1446 C.3     1  UNL1        0.2525
     29 O         138.7462  145.1328  162.4532 O.3     1  UNL1       -0.4714
@<TRIPOS>BOND
     1    28    29    1
     2    29    22    1
     3    22    23   ar
     4    23    24   ar
     5    24    25   ar
     6    25    21    1
     7    21    20    1
     8    20     1    1
     9     1     2   am
    10     2     3    2
    11     2     4   am
    12     4    14    1
    13    14    16    1
    14    16    17    1
    15    16    18    2
    16    16    19    2
    17     4     5    1
    18     5     6    1
    19     6     7    1
    20     7     8   ar
    21     8     9   ar
    22     9    10   ar
    23    10    11    1
    24    10    12   ar
    25    12    13   ar
    26    25    26   ar
    27    26    27   ar
    28    27    22   ar
    29     6     1    1
    30    13     7   ar
    31    14    15    1
@<TRIPOS>MOLECULE
*****
 29 31 0 0 0
SMALL
GASTEIGER

@<TRIPOS>ATOM
      1 N         139.0519  138.9185  164.5080 N.am    1  UNL1       -0.2588
      2 C         138.3295  139.1643  163.2166 C.2     1  UNL1        0.3219
      3 O         137.9672  138.1251  162.1973 O.2     1  UNL1       -0.2510
      4 N         138.0329  140.6317  163.1233 N.am    1  UNL1       -0.1885
      5 C         138.5721  141.2929  164.3571 C.3     1  UNL1        0.1388
      6 C         139.2018  140.2340  165.2129 C.3     1  UNL1        0.1208
      7 C         139.8650  140.4524  166.5404 C.ar    1  UNL1       -0.0025
      8 C         139.2574  139.8782  167.7859 C.ar    1  UNL1       -0.0018
      9 C         139.9206  140.0965  169.1135 C.ar    1  UNL1        0.0111
     10 C         141.1915  140.8891  169.1956 C.ar    1  UNL1        0.0577
     11 CL        141.8548  141.1074  170.5232 Cl      1  UNL1       -0.0822
     12 C         141.7992  141.4633  167.9503 C.ar    1  UNL1        0.0111
     13 C         141.1359  141.2449  166.6227 C.ar    1  UNL1       -0.0018
     14 N         137.3221  141.3177  161.9946 N.3     1  UNL1       -0.1073
     15 H         136.6837  141.9927  162.4155 H       1  UNL1        0.1715
     16 S         138.1078  142.0565  160.9521 S.O2    1  UNL1        0.0573
     17 C         138.8935  142.7953  159.9096 C.3     1  UNL1        0.1974
     18 O         138.3620  140.7668  160.2296 O.2     1  UNL1       -0.1561
     19 O         137.8536  143.3463  161.6747 O.2     1  UNL1       -0.1561
     20 C         139.5388  137.5903  165.0069 C.3     1  UNL1        0.1000
     21 C         140.8445  137.0380  164.5170 C.3     1  UNL1        0.0479
     22 C         144.4437  139.7201  164.1969 C.ar    1  UNL1        0.1387
     23 C         143.6266  139.4126  162.9772 C.ar    1  UNL1        0.0366
     24 C         142.4269  138.5186  163.0839 C.ar    1  UNL1       -0.0011
     25 C         142.0443  137.9320  164.4103 C.ar    1  UNL1       -0.0203
     26 C         142.8613  138.2395  165.6301 C.ar    1  UNL1       -0.0011
     27 C         144.0610  139.1336  165.5234 C.ar    1  UNL1        0.0366
     28 C         145.6099  141.8094  163.1846 C.3     1  UNL1        0.2525
     29 O         145.6434  140.6141  164.0902 O.3     1  UNL1       -0.4714
@<TRIPOS>BOND
     1    28    29    1
     2    29    22    1
     3    22    23   ar
     4    23    24   ar
     5    24    25   ar
     6    25    21    1
     7    21    20    1
     8    20     1    1
     9     1     2   am
    10     2     3    2
    11     2     4   am
    12     4    14    1
    13    14    16    1
    14    16    17    1
    15    16    18    2
    16    16    19    2
    17     4     5    1
    18     5     6    1
    19     6     7    1
    20     7     8   ar
    21     8     9   ar
    22     9    10   ar
    23    10    11    1
    24    10    12   ar
    25    12    13   ar
    26    25    26   ar
    27    26    27   ar
    28    27    22   ar
    29     6     1    1
    30    13     7   ar
    31    14    15    1
@<TRIPOS>MOLECULE
*****
 29 31 0 0 0
SMALL
GASTEIGER

@<TRIPOS>ATOM
      1 N         144.1820  142.3662  164.7432 N.am    1  UNL1       -0.2588
      2 C         144.7441  141.4789  163.6723 C.2     1  UNL1        0.3219
      3 O         145.7288  141.8862  162.6167 O.2     1  UNL1       -0.2510
      4 N         144.1486  140.1127  163.8425 N.am    1  UNL1       -0.1885
      5 C         143.2184  140.1557  165.0185 C.3     1  UNL1        0.1388
      6 C         143.2390  141.5484  165.5752 C.3     1  UNL1        0.1208
      7 C         142.4546  142.0375  166.7564 C.ar    1  UNL1       -0.0025
      8 C         143.1187  142.1703  168.0949 C.ar    1  UNL1       -0.0018
      9 C         142.3342  142.6594  169.2761 C.ar    1  UNL1        0.0111
     10 C         140.8856  143.0157  169.1190 C.ar    1  UNL1        0.0577
     11 CL        140.1011  143.5047  170.3002 Cl      1  UNL1       -0.0822
     12 C         140.2215  142.8828  167.7806 C.ar    1  UNL1        0.0111
     13 C         141.0060  142.3938  166.5994 C.ar    1  UNL1       -0.0018
     14 N         144.4332  138.9140  162.9869 N.3     1  UNL1       -0.1073
     15 H         144.4810  138.1101  163.6129 H       1  UNL1        0.1715
     16 S         143.4934  138.5440  161.8779 S.O2    1  UNL1        0.0573
     17 C         142.5537  138.1739  160.7689 C.3     1  UNL1        0.1974
     18 O         144.3510  139.2928  160.9013 O.2     1  UNL1       -0.1561
     19 O         142.6358  137.7951  162.8546 O.2     1  UNL1       -0.1561
     20 C         144.5059  143.8167  164.9464 C.3     1  UNL1        0.1000
     21 C         143.9279  144.8504  164.0259 C.3     1  UNL1        0.0479
     22 C         139.9771  144.1058  162.0042 C.ar    1  UNL1        0.1387
     23 C         140.0140  144.6640  163.3960 C.ar    1  UNL1        0.0366
     24 C         141.3309  144.9122  164.0699 C.ar    1  UNL1       -0.0011
     25 C         142.6110  144.6022  163.3520 C.ar    1  UNL1       -0.0203
     26 C         142.5741  144.0440  161.9603 C.ar    1  UNL1       -0.0011
     27 C         141.2572  143.7958  161.2864 C.ar    1  UNL1        0.0366
     28 C         138.1242  142.4608  161.2228 C.3     1  UNL1        0.2525
     29 O         138.6602  143.8576  161.3303 O.3     1  UNL1       -0.4714
@<TRIPOS>BOND
     1    28    29    1
     2    29    22    1
     3    22    23   ar
     4    23    24   ar
     5    24    25   ar
     6    25    21    1
     7    21    20    1
     8    20     1    1
     9     1     2   am
    10     2     3    2
    11     2     4   am
    12     4    14    1
    13    14    16    1
    14    16    17    1
    15    16    18    2
    16    16    19    2
    17     4     5    1
    18     5     6    1
    19     6     7    1
    20     7     8   ar
    21     8     9   ar
    22     9    10   ar
    23    10    11    1
    24    10    12   ar
    25    12    13   ar
    26    25    26   ar
    27    26    27   ar
    28    27    22   ar
    29     6     1    1
    30    13     7   ar
    31    14    15    1
@<TRIPOS>MOLECULE
*****
 29 31 0 0 0
SMALL
GASTEIGER

@<TRIPOS>ATOM
      1 N         140.3249  144.1980  164.8290 N.am    1  UNL1       -0.2588
      2 C         141.1960  144.7406  163.7350 C.2     1  UNL1        0.3219
      3 O         140.8107  145.7990  162.7443 O.2     1  UNL1       -0.2510
      4 N         142.5199  144.0391  163.8056 N.am    1  UNL1       -0.1885
      5 C         142.4671  143.0629  164.9432 C.3     1  UNL1        0.1388
      6 C         141.1105  143.1611  165.5758 C.3     1  UNL1        0.1208
      7 C         140.6249  142.3627  166.7490 C.ar    1  UNL1       -0.0025
      8 C         140.6333  142.9663  168.1222 C.ar    1  UNL1       -0.0018
      9 C         140.1476  142.1678  169.2955 C.ar    1  UNL1        0.0111
     10 C         139.6535  140.7657  169.0956 C.ar    1  UNL1        0.0577
     11 CL        139.1678  139.9672  170.2688 Cl      1  UNL1       -0.0822
     12 C         139.6450  140.1621  167.7225 C.ar    1  UNL1        0.0111
     13 C         140.1307  140.9606  166.5492 C.ar    1  UNL1       -0.0018
     14 N         143.6910  144.2726  162.8979 N.3     1  UNL1       -0.1073
     15 H         144.5155  144.3456  163.4940 H       1  UNL1        0.1715
     16 S         144.0189  143.2767  161.8253 S.O2    1  UNL1        0.0573
     17 C         144.3468  142.2808  160.7526 C.3     1  UNL1        0.1974
     18 O         143.0143  143.9230  160.9181 O.2     1  UNL1       -0.1561
     19 O         145.0237  142.6304  162.7325 O.2     1  UNL1       -0.1561
     20 C         138.9157  144.6185  165.1244 C.3     1  UNL1        0.1000
     21 C         137.8055  144.2261  164.1952 C.3     1  UNL1        0.0479
     22 C         138.1185  140.4358  161.7899 C.ar    1  UNL1        0.1387
     23 C         138.2589  141.7671  161.1134 C.ar    1  UNL1        0.0366
     24 C         138.1546  143.0305  161.9152 C.ar    1  UNL1       -0.0011
     25 C         137.9098  142.9626  163.3935 C.ar    1  UNL1       -0.0203
     26 C         137.7694  141.6313  164.0700 C.ar    1  UNL1       -0.0011
     27 C         137.8738  140.3678  163.2682 C.ar    1  UNL1        0.0366
     28 C         139.1828  138.0973  161.4039 C.3     1  UNL1        0.2525
     29 O         138.2229  139.1723  160.9881 O.3     1  UNL1       -0.4714
@<TRIPOS>BOND
     1    28    29    1
     2    29    22    1
     3    22    23   ar
     4    23    24   ar
     5    24    25   ar
     6    25    21    1
     7    21    20    1
     8    20     1    1
     9     1     2   am
    10     2     3    2
    11     2     4   am
    12     4    14    1
    13    14    16    1
    14    16    17    1
    15    16    18    2
    16    16    19    2
    17     4     5    1
    18     5     6    1
    19     6     7    1
    20     7     8   ar
    21     8     9   ar
    22     9    10   ar
    23    10    11    1
    24    10    12   ar
    25    12    13   ar
    26    25    26   ar
    27    26    27   ar
    28    27    22   ar
    29     6     1    1
    30    13     7   ar
    31    14    15    1
@<TRIPOS>MOLECULE
*****
 29 31 0 0 0
SMALL
GASTEIGER

@<TRIPOS>ATOM
      1 N         143.6708  143.1288  164.2631 N.am    1  UNL1       -0.2588
      2 C         143.4898  144.0769  163.1149 C.2     1  UNL1        0.3219
      3 O         144.5545  144.5053  162.1490 O.2     1  UNL1       -0.2510
      4 N         142.0572  144.5213  163.1021 N.am    1  UNL1       -0.1885
      5 C         141.3528  143.8479  164.2424 C.3     1  UNL1        0.1388
      6 C         142.3500  142.9873  164.9600 C.3     1  UNL1        0.1208
      7 C         142.0748  142.1349  166.1631 C.ar    1  UNL1       -0.0025
      8 C         140.8915  141.2131  166.1745 C.ar    1  UNL1       -0.0018
      9 C         140.6163  140.3606  167.3777 C.ar    1  UNL1        0.0111
     10 C         141.5244  140.4300  168.5695 C.ar    1  UNL1        0.0577
     11 CL        141.2493  139.5775  169.7727 Cl      1  UNL1       -0.0822
     12 C         142.7077  141.3517  168.5582 C.ar    1  UNL1        0.0111
     13 C         142.9829  142.2041  167.3551 C.ar    1  UNL1       -0.0018
     14 N         141.4377  145.4721  162.1213 N.3     1  UNL1       -0.1073
     15 H         142.1854  146.0817  161.7898 H       1  UNL1        0.1715
     16 S         140.7380  144.9439  160.9042 S.O2    1  UNL1        0.0573
     17 C         140.0382  144.4158  159.6871 C.3     1  UNL1        0.1974
     18 O         139.4237  145.0314  161.6219 O.2     1  UNL1       -0.1561
     19 O         142.0523  144.8565  160.1865 O.2     1  UNL1       -0.1561
     20 C         144.9482  142.4427  164.6471 C.3     1  UNL1        0.1000
     21 C         145.2937  141.1114  164.0487 C.3     1  UNL1        0.0479
     22 C         142.0448  138.1172  163.1945 C.ar    1  UNL1        0.1387
     23 C         142.6151  138.2312  164.5772 C.ar    1  UNL1        0.0366
     24 C         143.6981  139.2292  164.8619 C.ar    1  UNL1       -0.0011
     25 C         144.2107  140.1133  163.7640 C.ar    1  UNL1       -0.0203
     26 C         143.6405  139.9994  162.3813 C.ar    1  UNL1       -0.0011
     27 C         142.5575  139.0013  162.0966 C.ar    1  UNL1        0.0366
     28 C         139.5251  137.5502  162.9123 C.3     1  UNL1        0.2525
     29 O         140.9619  137.1192  162.9098 O.3     1  UNL1       -0.4714
@<TRIPOS>BOND
     1    28    29    1
     2    29    22    1
     3    22    23   ar
     4    23    24   ar
     5    24    25   ar
     6    25    21    1
     7    21    20    1
     8    20     1    1
     9     1     2   am
    10     2     3    2
    11     2     4   am
    12     4    14    1
    13    14    16    1
    14    16    17    1
    15    16    18    2
    16    16    19    2
    17     4     5    1
    18     5     6    1
    19     6     7    1
    20     7     8   ar
    21     8     9   ar
    22     9    10   ar
    23    10    11    1
    24    10    12   ar
    25    12    13   ar
    26    25    26   ar
    27    26    27   ar
    28    27    22   ar
    29     6     1    1
    30    13     7   ar
    31    14    15    1
@<TRIPOS>MOLECULE
*****
 29 31 0 0 0
SMALL
GASTEIGER

@<TRIPOS>ATOM
      1 N         143.6204  139.2040  164.2778 N.am    1  UNL1       -0.2588
      2 C         143.0722  138.3943  163.1403 C.2     1  UNL1        0.3219
      3 O         143.8232  137.9825  161.9089 O.2     1  UNL1       -0.2510
      4 N         141.6412  138.0688  163.4503 N.am    1  UNL1       -0.1885
      5 C         141.3049  138.6773  164.7795 C.3     1  UNL1        0.1388
      6 C         142.5281  139.3789  165.2910 C.3     1  UNL1        0.1208
      7 C         142.6395  140.1244  166.5877 C.ar    1  UNL1       -0.0025
      8 C         142.6796  139.3716  167.8846 C.ar    1  UNL1       -0.0018
      9 C         142.7910  140.1172  169.1814 C.ar    1  UNL1        0.0111
     10 C         142.8624  141.6155  169.1814 C.ar    1  UNL1        0.0577
     11 CL        142.9738  142.3611  170.4782 Cl      1  UNL1       -0.0822
     12 C         142.8223  142.3683  167.8846 C.ar    1  UNL1        0.0111
     13 C         142.7109  141.6227  166.5878 C.ar    1  UNL1       -0.0018
     14 N         140.7099  137.2744  162.5835 N.3     1  UNL1       -0.1073
     15 H         140.3260  136.5314  163.1674 H       1  UNL1        0.1715
     16 S         139.5460  137.9478  161.9189 S.O2    1  UNL1        0.0573
     17 C         138.3821  138.6213  161.2543 C.3     1  UNL1        0.1974
     18 O         138.6411  137.4635  163.0128 O.2     1  UNL1       -0.1561
     19 O         140.4509  138.4322  160.8250 O.2     1  UNL1       -0.1561
     20 C         145.0159  139.7439  164.3836 C.3     1  UNL1        0.1000
     21 C         145.4055  140.9712  163.6143 C.3     1  UNL1        0.0479
     22 C         142.5963  144.4802  163.4022 C.ar    1  UNL1        0.1387
     23 C         143.7572  144.5052  164.3517 C.ar    1  UNL1        0.0366
     24 C         144.6936  143.3355  164.4224 C.ar    1  UNL1       -0.0011
     25 C         144.4691  142.1409  163.5436 C.ar    1  UNL1       -0.0203
     26 C         143.3082  142.1159  162.5941 C.ar    1  UNL1       -0.0011
     27 C         142.3718  143.2855  162.5234 C.ar    1  UNL1        0.0366
     28 C         140.5356  145.6516  162.3385 C.3     1  UNL1        0.2525
     29 O         141.6598  145.6499  163.3315 O.3     1  UNL1       -0.4714
@<TRIPOS>BOND
     1    28    29    1
     2    29    22    1
     3    22    23   ar
     4    23    24   ar
     5    24    25   ar
     6    25    21    1
     7    21    20    1
     8    20     1    1
     9     1     2   am
    10     2     3    2
    11     2     4   am
    12     4    14    1
    13    14    16    1
    14    16    17    1
    15    16    18    2
    16    16    19    2
    17     4     5    1
    18     5     6    1
    19     6     7    1
    20     7     8   ar
    21     8     9   ar
    22     9    10   ar
    23    10    11    1
    24    10    12   ar
    25    12    13   ar
    26    25    26   ar
    27    26    27   ar
    28    27    22   ar
    29     6     1    1
    30    13     7   ar
    31    14    15    1
@<TRIPOS>MOLECULE
*****
 29 31 0 0 0
SMALL
GASTEIGER

@<TRIPOS>ATOM
      1 N         139.2652  139.3733  165.4794 N.am    1  UNL1       -0.2588
      2 C         138.5580  139.1553  166.7842 C.2     1  UNL1        0.3219
      3 O         137.2783  138.3970  166.9775 O.2     1  UNL1       -0.2510
      4 N         139.3551  139.8288  167.8617 N.am    1  UNL1       -0.1885
      5 C         140.5550  140.4631  167.2229 C.3     1  UNL1        0.1388
      6 C         140.4995  140.1816  165.7506 C.3     1  UNL1        0.1208
      7 C         141.5021  140.6296  164.7288 C.ar    1  UNL1       -0.0025
      8 C         142.9404  140.2249  164.8617 C.ar    1  UNL1       -0.0018
      9 C         143.9430  140.6730  163.8399 C.ar    1  UNL1        0.0111
     10 C         143.5073  141.5257  162.6853 C.ar    1  UNL1        0.0577
     11 CL        144.5099  141.9737  161.6635 Cl      1  UNL1       -0.0822
     12 C         142.0691  141.9303  162.5524 C.ar    1  UNL1        0.0111
     13 C         141.0665  141.4823  163.5742 C.ar    1  UNL1       -0.0018
     14 N         139.0126  139.8622  169.3216 N.3     1  UNL1       -0.1073
     15 H         138.8779  138.8946  169.6147 H       1  UNL1        0.1715
     16 S         139.9639  140.4830  170.3012 S.O2    1  UNL1        0.0573
     17 C         140.9152  141.1037  171.2808 C.3     1  UNL1        0.1974
     18 O         140.8485  139.2752  170.2075 O.2     1  UNL1       -0.1561
     19 O         139.0793  141.6908  170.3949 O.2     1  UNL1       -0.1561
     20 C         138.8169  138.8713  164.1389 C.3     1  UNL1        0.1000
     21 C         139.5572  137.7500  163.4721 C.3     1  UNL1        0.0479
     22 C         142.7035  138.6538  160.3843 C.ar    1  UNL1        0.1387
     23 C         141.2873  139.0963  160.1639 C.ar    1  UNL1        0.0366
     24 C         140.2386  138.7951  161.1931 C.ar    1  UNL1       -0.0011
     25 C         140.6060  138.0513  162.4428 C.ar    1  UNL1       -0.0203
     26 C         142.0221  137.6088  162.6632 C.ar    1  UNL1       -0.0011
     27 C         143.0709  137.9100  161.6340 C.ar    1  UNL1        0.0366
     28 C         143.5760  140.1166  158.4224 C.3     1  UNL1        0.2525
     29 O         143.7522  138.9551  159.3550 O.3     1  UNL1       -0.4714
@<TRIPOS>BOND
     1    28    29    1
     2    29    22    1
     3    22    23   ar
     4    23    24   ar
     5    24    25   ar
     6    25    21    1
     7    21    20    1
     8    20     1    1
     9     1     2   am
    10     2     3    2
    11     2     4   am
    12     4    14    1
    13    14    16    1
    14    16    17    1
    15    16    18    2
    16    16    19    2
    17     4     5    1
    18     5     6    1
    19     6     7    1
    20     7     8   ar
    21     8     9   ar
    22     9    10   ar
    23    10    11    1
    24    10    12   ar
    25    12    13   ar
    26    25    26   ar
    27    26    27   ar
    28    27    22   ar
    29     6     1    1
    30    13     7   ar
    31    14    15    1
