@<TRIPOS>MOLECULE
*****
 39 43 0 0 0
SMALL
GASTEIGER

@<TRIPOS>ATOM
      1 C         141.2368  139.3547  164.0866 C.ar    1  UNL1        0.0502
      2 C         140.5348  138.1249  163.5919 C.ar    1  UNL1        0.0143
      3 C         140.5626  137.7815  162.1320 C.ar    1  UNL1       -0.0030
      4 C         141.2925  138.6679  161.1668 C.ar    1  UNL1       -0.0223
      5 C         141.9945  139.8977  161.6615 C.ar    1  UNL1       -0.0034
      6 C         141.9666  140.2411  163.1214 C.ar    1  UNL1        0.0089
      7 C         141.3203  138.3245  159.7069 C.3     1  UNL1        0.0257
      8 C         142.5609  137.7425  159.0968 C.3     1  UNL1        0.0259
      9 C         142.5887  137.3991  157.6369 C.3     1  UNL1        0.0937
     10 N         141.3759  137.6376  156.7871 N.am    1  UNL1       -0.2792
     11 C         141.4036  137.2942  155.3272 C.2     1  UNL1        0.2301
     12 O         140.1908  137.5327  154.4774 O.2     1  UNL1       -0.2745
     13 C         140.1352  138.2196  157.3972 C.3     1  UNL1        0.0937
     14 C         140.1075  138.5630  158.8571 C.3     1  UNL1        0.0259
     15 C         142.6442  136.7123  154.7172 C.3     1  UNL1        0.1131
     16 C         142.8261  135.2243  154.6623 C.ar    1  UNL1        0.0061
     17 C         142.1442  134.4243  153.5923 C.ar    1  UNL1       -0.0007
     18 C         142.3261  132.9364  153.5374 C.ar    1  UNL1        0.0204
     19 C         143.1899  132.2485  154.5525 C.ar    1  UNL1        0.0989
     20 N         143.8719  133.0485  155.6225 N.ar    1  UNL1       -0.2426
     21 C         143.6900  134.5364  155.6774 C.ar    1  UNL1        0.0951
     22 C         142.6687  141.4710  163.6161 C.2     1  UNL1       -0.0253
     23 C         141.9677  142.7968  163.5887 C.2     1  UNL1       -0.0303
     24 C         142.6697  144.0267  164.0834 C.3     1  UNL1        0.0257
     25 C         144.0726  143.9306  164.6055 C.3     1  UNL1        0.0050
     26 C         144.7736  142.6048  164.6330 C.3     1  UNL1        0.0050
     27 C         144.0715  141.3749  164.1382 C.3     1  UNL1        0.0261
     28 C         142.2399  139.1230  166.4720 C.2     1  UNL1        0.2837
     29 O         143.2985  138.2045  165.9376 O.2     1  UNL1       -0.2665
     30 N         141.2090  139.6981  165.5465 N.am    1  UNL1       -0.2779
     31 H         140.5142  140.3010  165.8972 H       1  UNL1        0.1553
     32 C         141.6479  140.5174  170.0456 C.ar    1  UNL1        0.1469
     33 C         142.6908  139.4724  170.3113 C.ar    1  UNL1        0.1282
     34 N         143.0394  138.8229  169.0049 N.ar    1  UNL1       -0.2205
     35 C         142.2121  139.4664  167.9319 C.ar    1  UNL1        0.1958
     36 N         141.3521  140.5136  168.5751 N.ar    1  UNL1       -0.3257
     37 H         140.7068  141.0963  168.1131 H       1  UNL1        0.1682
     38 N         140.3770  142.3015  172.0955 N.1     1  UNL1       -0.1893
     39 C         141.0125  141.4094  171.0705 C.1     1  UNL1        0.1194
@<TRIPOS>BOND
     1    38    39    3
     2    39    32    1
     3    32    33   ar
     4    33    34   ar
     5    34    35   ar
     6    35    28    1
     7    28    29    2
     8    28    30   am
     9    30     1    1
    10     1     2   ar
    11     2     3   ar
    12     3     4   ar
    13     4     7    1
    14     7     8    1
    15     8     9    1
    16     9    10    1
    17    10    11   am
    18    11    12    2
    19    11    15    1
    20    15    16    1
    21    16    17   ar
    22    17    18   ar
    23    18    19   ar
    24    19    20   ar
    25    20    21   ar
    26    10    13    1
    27    13    14    1
    28     4     5   ar
    29     5     6   ar
    30     6    22    1
    31    22    23    2
    32    23    24    1
    33    24    25    1
    34    25    26    1
    35    26    27    1
    36    35    36   ar
    37    36    32   ar
    38     6     1   ar
    39    27    22    1
    40    14     7    1
    41    21    16   ar
    42    30    31    1
    43    36    37    1
@<TRIPOS>MOLECULE
*****
 39 43 0 0 0
SMALL
GASTEIGER

@<TRIPOS>ATOM
      1 C         141.0423  139.5613  163.9379 C.ar    1  UNL1        0.0502
      2 C         141.6611  138.2544  163.5391 C.ar    1  UNL1        0.0143
      3 C         141.7236  137.8648  162.0920 C.ar    1  UNL1       -0.0030
      4 C         141.1672  138.7821  161.0436 C.ar    1  UNL1       -0.0223
      5 C         140.5483  140.0889  161.4424 C.ar    1  UNL1       -0.0034
      6 C         140.4859  140.4785  162.8896 C.ar    1  UNL1        0.0089
      7 C         141.2297  138.3924  159.5964 C.3     1  UNL1        0.0257
      8 C         142.4868  137.7989  159.0331 C.3     1  UNL1        0.0259
      9 C         142.5492  137.4092  157.5859 C.3     1  UNL1        0.0937
     10 N         141.3546  137.6131  156.7021 N.am    1  UNL1       -0.2792
     11 C         141.4170  137.2235  155.2549 C.2     1  UNL1        0.2301
     12 O         140.2223  137.4274  154.3711 O.2     1  UNL1       -0.2745
     13 C         140.0974  138.2067  157.2654 C.3     1  UNL1        0.0937
     14 C         140.0350  138.5963  158.7126 C.3     1  UNL1        0.0259
     15 C         142.6741  136.6299  154.6916 C.3     1  UNL1        0.1131
     16 C         142.8475  135.1405  154.6509 C.ar    1  UNL1        0.0061
     17 C         142.1851  134.3376  153.5709 C.ar    1  UNL1       -0.0007
     18 C         142.3585  132.8482  153.5303 C.ar    1  UNL1        0.0204
     19 C         143.1944  132.1618  154.5696 C.ar    1  UNL1        0.0989
     20 N         143.8569  132.9648  155.6495 N.ar    1  UNL1       -0.2426
     21 C         143.6834  134.4541  155.6902 C.ar    1  UNL1        0.0951
     22 C         139.8670  141.7854  163.2884 C.2     1  UNL1       -0.0253
     23 C         138.4004  141.8582  163.5949 C.2     1  UNL1       -0.0303
     24 C         137.7815  143.1651  163.9937 C.3     1  UNL1        0.0257
     25 C         138.6292  144.3992  164.0861 C.3     1  UNL1        0.0050
     26 C         140.0958  144.3264  163.7796 C.3     1  UNL1        0.0050
     27 C         140.7146  143.0195  163.3808 C.3     1  UNL1        0.0261
     28 C         139.8075  139.5355  166.2237 C.2     1  UNL1        0.2837
     29 O         138.6977  138.7305  165.6151 O.2     1  UNL1       -0.2665
     30 N         140.9798  139.9509  165.3851 N.am    1  UNL1       -0.2779
     31 H         141.7082  140.4793  165.7845 H       1  UNL1        0.1553
     32 C         140.3171  140.8596  169.8365 C.ar    1  UNL1        0.1469
     33 C         138.9805  140.1898  169.9591 C.ar    1  UNL1        0.1282
     34 N         138.6270  139.6123  168.6207 N.ar    1  UNL1       -0.2205
     35 C         139.7450  139.9252  167.6708 C.ar    1  UNL1        0.1958
     36 N         140.7896  140.6960  168.4223 N.ar    1  UNL1       -0.3257
     37 H         141.6365  141.0351  168.0522 H       1  UNL1        0.1682
     38 N         141.7872  142.2774  172.0339 N.1     1  UNL1       -0.1893
     39 C         141.0522  141.5685  170.9352 C.1     1  UNL1        0.1194
@<TRIPOS>BOND
     1    38    39    3
     2    39    32    1
     3    32    33   ar
     4    33    34   ar
     5    34    35   ar
     6    35    28    1
     7    28    29    2
     8    28    30   am
     9    30     1    1
    10     1     2   ar
    11     2     3   ar
    12     3     4   ar
    13     4     7    1
    14     7     8    1
    15     8     9    1
    16     9    10    1
    17    10    11   am
    18    11    12    2
    19    11    15    1
    20    15    16    1
    21    16    17   ar
    22    17    18   ar
    23    18    19   ar
    24    19    20   ar
    25    20    21   ar
    26    10    13    1
    27    13    14    1
    28     4     5   ar
    29     5     6   ar
    30     6    22    1
    31    22    23    2
    32    23    24    1
    33    24    25    1
    34    25    26    1
    35    26    27    1
    36    35    36   ar
    37    36    32   ar
    38     6     1   ar
    39    27    22    1
    40    14     7    1
    41    21    16   ar
    42    30    31    1
    43    36    37    1
@<TRIPOS>MOLECULE
*****
 39 43 0 0 0
SMALL
GASTEIGER

@<TRIPOS>ATOM
      1 C         142.0072  139.9909  163.8185 C.ar    1  UNL1        0.0502
      2 C         143.0402  140.2957  162.7745 C.ar    1  UNL1        0.0143
      3 C         142.8772  139.7653  161.3809 C.ar    1  UNL1       -0.0030
      4 C         141.6812  138.9302  161.0313 C.ar    1  UNL1       -0.0223
      5 C         140.6482  138.6255  162.0753 C.ar    1  UNL1       -0.0034
      6 C         140.8112  139.1558  163.4689 C.ar    1  UNL1        0.0089
      7 C         141.5182  138.3999  159.6376 C.3     1  UNL1        0.0257
      8 C         142.6490  137.6694  158.9762 C.3     1  UNL1        0.0259
      9 C         142.4861  137.1391  157.5825 C.3     1  UNL1        0.0937
     10 N         141.1923  137.3393  156.8503 N.am    1  UNL1       -0.2792
     11 C         141.0293  136.8091  155.4567 C.2     1  UNL1        0.2301
     12 O         139.7355  137.0093  154.7246 O.2     1  UNL1       -0.2745
     13 C         140.0615  138.0699  157.5119 C.3     1  UNL1        0.0937
     14 C         140.2245  138.6002  158.9055 C.3     1  UNL1        0.0259
     15 C         142.1601  136.0786  154.7952 C.3     1  UNL1        0.1131
     16 C         142.4528  134.6551  155.1669 C.ar    1  UNL1        0.0061
     17 C         143.8151  134.2753  155.6666 C.ar    1  UNL1       -0.0007
     18 C         144.1078  132.8519  156.0382 C.ar    1  UNL1        0.0204
     19 C         143.0380  131.8082  155.9101 C.ar    1  UNL1        0.0989
     20 N         141.6757  132.1879  155.4104 N.ar    1  UNL1       -0.2426
     21 C         141.3831  133.6114  155.0388 C.ar    1  UNL1        0.0951
     22 C         139.7782  138.8510  164.5130 C.2     1  UNL1       -0.0253
     23 C         139.5036  137.4290  164.9038 C.2     1  UNL1       -0.0303
     24 C         138.4707  137.1242  165.9478 C.3     1  UNL1        0.0257
     25 C         137.7122  138.2414  166.6011 C.3     1  UNL1        0.0050
     26 C         137.9867  139.6633  166.2103 C.3     1  UNL1        0.0050
     27 C         139.0198  139.9681  165.1663 C.3     1  UNL1        0.0261
     28 C         142.6335  139.6116  166.3113 C.2     1  UNL1        0.2837
     29 O         142.9338  138.1718  166.0168 O.2     1  UNL1       -0.2665
     30 N         142.1701  140.5212  165.2122 N.am    1  UNL1       -0.2779
     31 H         141.9730  141.4662  165.4055 H       1  UNL1        0.1553
     32 C         143.0764  141.6572  169.5800 C.ar    1  UNL1        0.1469
     33 C         143.0180  140.2585  170.1191 C.ar    1  UNL1        0.1282
     34 N         142.8450  139.3221  168.9602 N.ar    1  UNL1       -0.2205
     35 C         142.7964  140.1419  167.7050 C.ar    1  UNL1        0.1958
     36 N         142.9395  141.5850  168.0881 N.ar    1  UNL1       -0.3257
     37 H         142.9429  142.3505  167.4690 H       1  UNL1        0.1682
     38 N         143.4088  144.1594  171.2014 N.1     1  UNL1       -0.1893
     39 C         143.2426  142.9083  170.3907 C.1     1  UNL1        0.1194
@<TRIPOS>BOND
     1    38    39    3
     2    39    32    1
     3    32    33   ar
     4    33    34   ar
     5    34    35   ar
     6    35    28    1
     7    28    29    2
     8    28    30   am
     9    30     1    1
    10     1     2   ar
    11     2     3   ar
    12     3     4   ar
    13     4     7    1
    14     7     8    1
    15     8     9    1
    16     9    10    1
    17    10    11   am
    18    11    12    2
    19    11    15    1
    20    15    16    1
    21    16    17   ar
    22    17    18   ar
    23    18    19   ar
    24    19    20   ar
    25    20    21   ar
    26    10    13    1
    27    13    14    1
    28     4     5   ar
    29     5     6   ar
    30     6    22    1
    31    22    23    2
    32    23    24    1
    33    24    25    1
    34    25    26    1
    35    26    27    1
    36    35    36   ar
    37    36    32   ar
    38     6     1   ar
    39    27    22    1
    40    14     7    1
    41    21    16   ar
    42    30    31    1
    43    36    37    1
@<TRIPOS>MOLECULE
*****
 39 43 0 0 0
SMALL
GASTEIGER

@<TRIPOS>ATOM
      1 C         142.0909  140.9238  163.4478 C.ar    1  UNL1        0.0502
      2 C         143.3100  140.1151  163.1167 C.ar    1  UNL1        0.0143
      3 C         143.9326  140.2197  161.7561 C.ar    1  UNL1       -0.0030
      4 C         143.3360  141.1329  160.7264 C.ar    1  UNL1       -0.0223
      5 C         142.1169  141.9415  161.0575 C.ar    1  UNL1       -0.0034
      6 C         141.4943  141.8370  162.4181 C.ar    1  UNL1        0.0089
      7 C         143.9587  141.2373  159.3657 C.3     1  UNL1        0.0257
      8 C         144.7458  142.4585  158.9929 C.3     1  UNL1        0.0259
      9 C         145.3685  142.5630  157.6322 C.3     1  UNL1        0.0937
     10 N         145.2039  141.4463  156.6443 N.am    1  UNL1       -0.2792
     11 C         145.8265  141.5507  155.2837 C.2     1  UNL1        0.2301
     12 O         145.6619  140.4340  154.2959 O.2     1  UNL1       -0.2745
     13 C         144.4166  140.2250  157.0172 C.3     1  UNL1        0.0937
     14 C         143.7941  140.1206  158.3779 C.3     1  UNL1        0.0259
     15 C         146.6136  142.7719  154.9109 C.3     1  UNL1        0.1131
     16 C         148.0703  142.6512  154.5735 C.ar    1  UNL1        0.0061
     17 C         148.6351  143.4067  153.4073 C.ar    1  UNL1       -0.0007
     18 C         150.0917  143.2860  153.0700 C.ar    1  UNL1        0.0204
     19 C         150.9834  142.4097  153.8988 C.ar    1  UNL1        0.0989
     20 N         150.4185  141.6542  155.0650 N.ar    1  UNL1       -0.2426
     21 C         148.9620  141.7749  155.4023 C.ar    1  UNL1        0.0951
     22 C         140.2751  142.6457  162.7492 C.2     1  UNL1       -0.0253
     23 C         138.9110  142.1137  162.4233 C.2     1  UNL1       -0.0303
     24 C         137.6918  142.9224  162.7543 C.3     1  UNL1        0.0257
     25 C         137.8366  144.2631  163.4113 C.3     1  UNL1        0.0050
     26 C         139.2007  144.7951  163.7373 C.3     1  UNL1        0.0050
     27 C         140.4200  143.9864  163.4062 C.3     1  UNL1        0.0261
     28 C         141.9812  141.6666  165.9350 C.2     1  UNL1        0.2837
     29 O         143.1168  142.6183  165.7008 O.2     1  UNL1       -0.2665
     30 N         141.4682  140.8193  164.8085 N.am    1  UNL1       -0.2779
     31 H         140.7230  140.1947  164.9622 H       1  UNL1        0.1553
     32 C         139.8886  140.9248  169.1187 C.ar    1  UNL1        0.1469
     33 C         140.9125  141.8780  169.6604 C.ar    1  UNL1        0.1282
     34 N         141.8209  142.2719  168.5337 N.ar    1  UNL1       -0.2205
     35 C         141.3586  141.5621  167.2957 C.ar    1  UNL1        0.1958
     36 N         140.1644  140.7296  167.6573 N.ar    1  UNL1       -0.3257
     37 H         139.6516  140.1559  167.0432 H       1  UNL1        0.1682
     38 N         137.6777  139.6353  170.6837 N.1     1  UNL1       -0.1893
     39 C         138.7832  140.2801  169.9012 C.1     1  UNL1        0.1194
@<TRIPOS>BOND
     1    38    39    3
     2    39    32    1
     3    32    33   ar
     4    33    34   ar
     5    34    35   ar
     6    35    28    1
     7    28    29    2
     8    28    30   am
     9    30     1    1
    10     1     2   ar
    11     2     3   ar
    12     3     4   ar
    13     4     7    1
    14     7     8    1
    15     8     9    1
    16     9    10    1
    17    10    11   am
    18    11    12    2
    19    11    15    1
    20    15    16    1
    21    16    17   ar
    22    17    18   ar
    23    18    19   ar
    24    19    20   ar
    25    20    21   ar
    26    10    13    1
    27    13    14    1
    28     4     5   ar
    29     5     6   ar
    30     6    22    1
    31    22    23    2
    32    23    24    1
    33    24    25    1
    34    25    26    1
    35    26    27    1
    36    35    36   ar
    37    36    32   ar
    38     6     1   ar
    39    27    22    1
    40    14     7    1
    41    21    16   ar
    42    30    31    1
    43    36    37    1
@<TRIPOS>MOLECULE
*****
 39 43 0 0 0
SMALL
GASTEIGER

@<TRIPOS>ATOM
      1 C         142.9410  141.2259  163.7699 C.ar    1  UNL1        0.0502
      2 C         144.0448  142.1285  163.3043 C.ar    1  UNL1        0.0143
      3 C         144.4251  142.1613  161.8537 C.ar    1  UNL1       -0.0030
      4 C         143.7017  141.2915  160.8688 C.ar    1  UNL1       -0.0223
      5 C         142.5979  140.3889  161.3344 C.ar    1  UNL1       -0.0034
      6 C         142.2176  140.3561  162.7850 C.ar    1  UNL1        0.0089
      7 C         144.0821  141.3243  159.4181 C.3     1  UNL1        0.0257
      8 C         145.0347  142.3685  158.9160 C.3     1  UNL1        0.0259
      9 C         145.4150  142.4014  157.4654 C.3     1  UNL1        0.0937
     10 N         144.8428  141.3900  156.5169 N.am    1  UNL1       -0.2792
     11 C         145.2231  141.4228  155.0663 C.2     1  UNL1        0.2301
     12 O         144.6508  140.4114  154.1178 O.2     1  UNL1       -0.2745
     13 C         143.8901  140.3458  157.0191 C.3     1  UNL1        0.0937
     14 C         143.5098  140.3130  158.4696 C.3     1  UNL1        0.0259
     15 C         146.1757  142.4670  154.5642 C.3     1  UNL1        0.1131
     16 C         147.6140  142.1161  154.3226 C.ar    1  UNL1        0.0061
     17 C         148.5521  141.9567  155.4821 C.ar    1  UNL1       -0.0007
     18 C         149.9903  141.6058  155.2405 C.ar    1  UNL1        0.0204
     19 C         150.4903  141.4143  153.8393 C.ar    1  UNL1        0.0989
     20 N         149.5522  141.5736  152.6798 N.ar    1  UNL1       -0.2426
     21 C         148.1140  141.9245  152.9214 C.ar    1  UNL1        0.0951
     22 C         141.1137  139.4534  163.2508 C.2     1  UNL1       -0.0253
     23 C         139.7195  139.9873  163.3966 C.2     1  UNL1       -0.0303
     24 C         138.6157  139.0847  163.8623 C.3     1  UNL1        0.0257
     25 C         138.9061  137.6482  164.1822 C.3     1  UNL1        0.0050
     26 C         140.3003  137.1144  164.0364 C.3     1  UNL1        0.0050
     27 C         141.4041  138.0170  163.5706 C.3     1  UNL1        0.0261
     28 C         143.0913  140.1085  166.1107 C.2     1  UNL1        0.2837
     29 O         144.0023  139.0568  165.5501 O.2     1  UNL1       -0.2665
     30 N         142.5607  141.1930  165.2206 N.am    1  UNL1       -0.2779
     31 H         141.9628  141.8833  165.5885 H       1  UNL1        0.1553
     32 C         141.8121  140.7030  169.7266 C.ar    1  UNL1        0.1469
     33 C         142.4393  139.3470  169.8604 C.ar    1  UNL1        0.1282
     34 N         142.9948  138.9593  168.5221 N.ar    1  UNL1       -0.2205
     35 C         142.7110  140.0756  167.5612 C.ar    1  UNL1        0.1958
     36 N         141.9800  141.1533  168.3057 N.ar    1  UNL1       -0.3257
     37 H         141.6656  142.0064  167.9280 H       1  UNL1        0.1682
     38 N         140.4593  142.2439  171.9166 N.1     1  UNL1       -0.1893
     39 C         141.1357  141.4735  170.8216 C.1     1  UNL1        0.1194
@<TRIPOS>BOND
     1    38    39    3
     2    39    32    1
     3    32    33   ar
     4    33    34   ar
     5    34    35   ar
     6    35    28    1
     7    28    29    2
     8    28    30   am
     9    30     1    1
    10     1     2   ar
    11     2     3   ar
    12     3     4   ar
    13     4     7    1
    14     7     8    1
    15     8     9    1
    16     9    10    1
    17    10    11   am
    18    11    12    2
    19    11    15    1
    20    15    16    1
    21    16    17   ar
    22    17    18   ar
    23    18    19   ar
    24    19    20   ar
    25    20    21   ar
    26    10    13    1
    27    13    14    1
    28     4     5   ar
    29     5     6   ar
    30     6    22    1
    31    22    23    2
    32    23    24    1
    33    24    25    1
    34    25    26    1
    35    26    27    1
    36    35    36   ar
    37    36    32   ar
    38     6     1   ar
    39    27    22    1
    40    14     7    1
    41    21    16   ar
    42    30    31    1
    43    36    37    1
@<TRIPOS>MOLECULE
*****
 39 43 0 0 0
SMALL
GASTEIGER

@<TRIPOS>ATOM
      1 C         140.6949  143.2595  163.5587 C.ar    1  UNL1        0.0502
      2 C         139.5143  144.0672  163.1074 C.ar    1  UNL1        0.0143
      3 C         139.3795  144.4571  161.6653 C.ar    1  UNL1       -0.0030
      4 C         140.4253  144.0393  160.6745 C.ar    1  UNL1       -0.0223
      5 C         141.6059  143.2316  161.1257 C.ar    1  UNL1       -0.0034
      6 C         141.7407  142.8417  162.5679 C.ar    1  UNL1        0.0089
      7 C         140.2904  144.4293  159.2323 C.3     1  UNL1        0.0257
      8 C         140.9942  145.6492  158.7162 C.3     1  UNL1        0.0259
      9 C         140.8594  146.0391  157.2740 C.3     1  UNL1        0.0937
     10 N         140.0206  145.2091  156.3480 N.am    1  UNL1       -0.2792
     11 C         139.8857  145.5990  154.9059 C.2     1  UNL1        0.2301
     12 O         139.0470  144.7690  153.9798 O.2     1  UNL1       -0.2745
     13 C         139.3168  143.9891  156.8641 C.3     1  UNL1        0.0937
     14 C         139.4517  143.5992  158.3062 C.3     1  UNL1        0.0259
     15 C         140.5896  146.8189  154.3898 C.3     1  UNL1        0.1131
     16 C         139.9811  148.1757  154.5873 C.ar    1  UNL1        0.0061
     17 C         140.4966  149.3494  153.8084 C.ar    1  UNL1       -0.0007
     18 C         139.8882  150.7061  154.0059 C.ar    1  UNL1        0.0204
     19 C         138.7642  150.8891  154.9823 C.ar    1  UNL1        0.0989
     20 N         138.2487  149.7154  155.7611 N.ar    1  UNL1       -0.2426
     21 C         138.8572  148.3587  155.5636 C.ar    1  UNL1        0.0951
     22 C         142.9213  142.0339  163.0192 C.2     1  UNL1       -0.0253
     23 C         142.8364  140.5368  163.0546 C.2     1  UNL1       -0.0303
     24 C         144.0169  139.7290  163.5059 C.3     1  UNL1        0.0257
     25 C         145.2826  140.4184  163.9219 C.3     1  UNL1        0.0050
     26 C         145.3675  141.9156  163.8865 C.3     1  UNL1        0.0050
     27 C         144.1869  142.7234  163.4352 C.3     1  UNL1        0.0261
     28 C         140.0970  141.6703  165.5252 C.2     1  UNL1        0.2837
     29 O         139.2295  140.8610  164.6073 O.2     1  UNL1       -0.2665
     30 N         140.8297  142.8695  165.0009 N.am    1  UNL1       -0.2779
     31 H         141.3992  143.4007  165.6033 H       1  UNL1        0.1553
     32 C         140.7559  141.3435  169.3362 C.ar    1  UNL1        0.1469
     33 C         140.1228  140.0169  169.0368 C.ar    1  UNL1        0.1282
     34 N         139.7990  139.9779  167.5727 N.ar    1  UNL1       -0.2205
     35 C         140.2319  141.2803  166.9673 C.ar    1  UNL1        0.1958
     36 N         140.8233  142.1243  168.0572 N.ar    1  UNL1       -0.3257
     37 H         141.1911  143.0313  167.9517 H       1  UNL1        0.1682
     38 N         141.7183  142.2719  172.0218 N.1     1  UNL1       -0.1893
     39 C         141.2371  141.8077  170.6790 C.1     1  UNL1        0.1194
@<TRIPOS>BOND
     1    38    39    3
     2    39    32    1
     3    32    33   ar
     4    33    34   ar
     5    34    35   ar
     6    35    28    1
     7    28    29    2
     8    28    30   am
     9    30     1    1
    10     1     2   ar
    11     2     3   ar
    12     3     4   ar
    13     4     7    1
    14     7     8    1
    15     8     9    1
    16     9    10    1
    17    10    11   am
    18    11    12    2
    19    11    15    1
    20    15    16    1
    21    16    17   ar
    22    17    18   ar
    23    18    19   ar
    24    19    20   ar
    25    20    21   ar
    26    10    13    1
    27    13    14    1
    28     4     5   ar
    29     5     6   ar
    30     6    22    1
    31    22    23    2
    32    23    24    1
    33    24    25    1
    34    25    26    1
    35    26    27    1
    36    35    36   ar
    37    36    32   ar
    38     6     1   ar
    39    27    22    1
    40    14     7    1
    41    21    16   ar
    42    30    31    1
    43    36    37    1
@<TRIPOS>MOLECULE
*****
 39 43 0 0 0
SMALL
GASTEIGER

@<TRIPOS>ATOM
      1 C         141.8319  142.3681  163.2911 C.ar    1  UNL1        0.0502
      2 C         142.4031  143.6774  162.8335 C.ar    1  UNL1        0.0143
      3 C         142.0215  144.2350  161.4943 C.ar    1  UNL1       -0.0030
      4 C         141.0688  143.4833  160.6127 C.ar    1  UNL1       -0.0223
      5 C         140.4976  142.1740  161.0703 C.ar    1  UNL1       -0.0034
      6 C         140.8792  141.6164  162.4095 C.ar    1  UNL1        0.0089
      7 C         140.6872  144.0409  159.2735 C.3     1  UNL1        0.0257
      8 C         141.4051  145.2396  158.7280 C.3     1  UNL1        0.0259
      9 C         141.0235  145.7973  157.3888 C.3     1  UNL1        0.0937
     10 N         139.9240  145.1562  156.5950 N.am    1  UNL1       -0.2792
     11 C         139.5424  145.7137  155.2559 C.2     1  UNL1        0.2301
     12 O         138.4429  145.0726  154.4621 O.2     1  UNL1       -0.2745
     13 C         139.2061  143.9574  157.1406 C.3     1  UNL1        0.0937
     14 C         139.5877  143.3998  158.4798 C.3     1  UNL1        0.0259
     15 C         140.2604  146.9125  154.7104 C.3     1  UNL1        0.1131
     16 C         139.6969  148.2860  154.9248 C.ar    1  UNL1        0.0061
     17 C         140.0238  149.3894  153.9627 C.ar    1  UNL1       -0.0007
     18 C         139.4603  150.7628  154.1771 C.ar    1  UNL1        0.0204
     19 C         138.5700  151.0330  155.3537 C.ar    1  UNL1        0.0989
     20 N         138.2431  149.9296  156.3159 N.ar    1  UNL1       -0.2426
     21 C         138.8066  148.5562  156.1014 C.ar    1  UNL1        0.0951
     22 C         140.3080  140.3070  162.8672 C.2     1  UNL1       -0.0253
     23 C         140.9557  139.0197  162.4507 C.2     1  UNL1       -0.0303
     24 C         140.3846  137.7104  162.9084 C.3     1  UNL1        0.0257
     25 C         139.1657  137.6883  163.7825 C.3     1  UNL1        0.0050
     26 C         138.5180  138.9756  164.1989 C.3     1  UNL1        0.0050
     27 C         139.0892  140.2850  163.7412 C.3     1  UNL1        0.0261
     28 C         141.4918  142.2637  165.8647 C.2     1  UNL1        0.2837
     29 O         140.3885  143.2746  165.7598 O.2     1  UNL1       -0.2665
     30 N         142.2135  141.8105  164.6303 N.am    1  UNL1       -0.2779
     31 H         142.9376  141.1470  164.6991 H       1  UNL1        0.1553
     32 C         142.5114  140.1625  168.9648 C.ar    1  UNL1        0.1469
     33 C         142.4095  141.5336  169.5647 C.ar    1  UNL1        0.1282
     34 N         142.0151  142.4876  168.4764 N.ar    1  UNL1       -0.2205
     35 C         141.8733  141.7061  167.2039 C.ar    1  UNL1        0.1958
     36 N         142.1800  140.2692  167.5057 N.ar    1  UNL1       -0.3257
     37 H         142.1662  139.5265  166.8597 H       1  UNL1        0.1682
     38 N         143.2485  137.6485  170.4265 N.1     1  UNL1       -0.1893
     39 C         142.8799  138.9055  169.6956 C.1     1  UNL1        0.1194
@<TRIPOS>BOND
     1    38    39    3
     2    39    32    1
     3    32    33   ar
     4    33    34   ar
     5    34    35   ar
     6    35    28    1
     7    28    29    2
     8    28    30   am
     9    30     1    1
    10     1     2   ar
    11     2     3   ar
    12     3     4   ar
    13     4     7    1
    14     7     8    1
    15     8     9    1
    16     9    10    1
    17    10    11   am
    18    11    12    2
    19    11    15    1
    20    15    16    1
    21    16    17   ar
    22    17    18   ar
    23    18    19   ar
    24    19    20   ar
    25    20    21   ar
    26    10    13    1
    27    13    14    1
    28     4     5   ar
    29     5     6   ar
    30     6    22    1
    31    22    23    2
    32    23    24    1
    33    24    25    1
    34    25    26    1
    35    26    27    1
    36    35    36   ar
    37    36    32   ar
    38     6     1   ar
    39    27    22    1
    40    14     7    1
    41    21    16   ar
    42    30    31    1
    43    36    37    1
@<TRIPOS>MOLECULE
*****
 39 43 0 0 0
SMALL
GASTEIGER

@<TRIPOS>ATOM
      1 C         141.2848  142.9956  163.1203 C.ar    1  UNL1        0.0502
      2 C         141.1535  144.4700  162.8780 C.ar    1  UNL1        0.0143
      3 C         141.1172  144.9991  161.4749 C.ar    1  UNL1       -0.0030
      4 C         141.2122  144.0537  160.3142 C.ar    1  UNL1       -0.0223
      5 C         141.3435  142.5793  160.5565 C.ar    1  UNL1       -0.0034
      6 C         141.3798  142.0502  161.9596 C.ar    1  UNL1        0.0089
      7 C         141.1759  144.5829  158.9110 C.3     1  UNL1        0.0257
      8 C         139.9832  145.3559  158.4316 C.3     1  UNL1        0.0259
      9 C         139.9468  145.8850  157.0284 C.3     1  UNL1        0.0937
     10 N         141.1033  145.6411  156.1048 N.am    1  UNL1       -0.2792
     11 C         141.0670  146.1702  154.7017 C.2     1  UNL1        0.2301
     12 O         142.2234  145.9263  153.7780 O.2     1  UNL1       -0.2745
     13 C         142.2960  144.8681  156.5842 C.3     1  UNL1        0.0937
     14 C         142.3323  144.3390  157.9873 C.3     1  UNL1        0.0259
     15 C         139.8743  146.9432  154.2223 C.3     1  UNL1        0.1131
     16 C         139.8067  148.4265  154.4354 C.ar    1  UNL1        0.0061
     17 C         138.8304  148.9990  155.4198 C.ar    1  UNL1       -0.0007
     18 C         138.7628  150.4822  155.6329 C.ar    1  UNL1        0.0204
     19 C         139.6715  151.3929  154.8616 C.ar    1  UNL1        0.0989
     20 N         140.6478  150.8204  153.8773 N.ar    1  UNL1       -0.2426
     21 C         140.7154  149.3372  153.6642 C.ar    1  UNL1        0.0951
     22 C         141.5111  140.5757  162.2020 C.2     1  UNL1       -0.0253
     23 C         140.2828  139.7234  162.3234 C.2     1  UNL1       -0.0303
     24 C         140.4140  138.2489  162.5658 C.3     1  UNL1        0.0257
     25 C         141.7736  137.6268  162.6869 C.3     1  UNL1        0.0050
     26 C         143.0019  138.4792  162.5655 C.3     1  UNL1        0.0050
     27 C         142.8706  139.9537  162.3231 C.3     1  UNL1        0.0261
     28 C         140.0427  142.1224  165.2286 C.2     1  UNL1        0.2837
     29 O         138.7279  142.3075  164.5305 O.2     1  UNL1       -0.2665
     30 N         141.3211  142.4665  164.5235 N.am    1  UNL1       -0.2779
     31 H         142.1840  142.3450  164.9816 H       1  UNL1        0.1553
     32 C         140.2841  141.4680  169.0468 C.ar    1  UNL1        0.1469
     33 C         139.9855  140.0900  168.5349 C.ar    1  UNL1        0.1282
     34 N         139.8587  140.1674  167.0423 N.ar    1  UNL1       -0.2205
     35 C         140.0789  141.5933  166.6317 C.ar    1  UNL1        0.1958
     36 N         140.3418  142.3970  167.8705 N.ar    1  UNL1       -0.3257
     37 H         140.5208  143.3645  167.9055 H       1  UNL1        0.1682
     38 N         140.6938  142.2318  171.9189 N.1     1  UNL1       -0.1893
     39 C         140.4889  141.8499  170.4828 C.1     1  UNL1        0.1194
@<TRIPOS>BOND
     1    38    39    3
     2    39    32    1
     3    32    33   ar
     4    33    34   ar
     5    34    35   ar
     6    35    28    1
     7    28    29    2
     8    28    30   am
     9    30     1    1
    10     1     2   ar
    11     2     3   ar
    12     3     4   ar
    13     4     7    1
    14     7     8    1
    15     8     9    1
    16     9    10    1
    17    10    11   am
    18    11    12    2
    19    11    15    1
    20    15    16    1
    21    16    17   ar
    22    17    18   ar
    23    18    19   ar
    24    19    20   ar
    25    20    21   ar
    26    10    13    1
    27    13    14    1
    28     4     5   ar
    29     5     6   ar
    30     6    22    1
    31    22    23    2
    32    23    24    1
    33    24    25    1
    34    25    26    1
    35    26    27    1
    36    35    36   ar
    37    36    32   ar
    38     6     1   ar
    39    27    22    1
    40    14     7    1
    41    21    16   ar
    42    30    31    1
    43    36    37    1
@<TRIPOS>MOLECULE
*****
 39 43 0 0 0
SMALL
GASTEIGER

@<TRIPOS>ATOM
      1 C         140.1447  144.1703  158.1955 C.ar    1  UNL1        0.0502
      2 C         140.8095  144.6738  159.4422 C.ar    1  UNL1        0.0143
      3 C         140.6020  143.9584  160.7441 C.ar    1  UNL1       -0.0030
      4 C         139.7297  142.7394  160.7994 C.ar    1  UNL1       -0.0223
      5 C         139.0648  142.2358  159.5526 C.ar    1  UNL1       -0.0034
      6 C         139.2723  142.9512  158.2507 C.ar    1  UNL1        0.0089
      7 C         139.5222  142.0240  162.1014 C.3     1  UNL1        0.0257
      8 C         140.6076  142.0207  163.1366 C.3     1  UNL1        0.0259
      9 C         140.4002  141.3053  164.4386 C.3     1  UNL1        0.0937
     10 N         139.1072  140.5931  164.7053 N.am    1  UNL1       -0.2792
     11 C         138.8997  139.8777  166.0073 C.2     1  UNL1        0.2301
     12 O         137.6068  139.1655  166.2740 O.2     1  UNL1       -0.2745
     13 C         138.0218  140.5964  163.6700 C.3     1  UNL1        0.0937
     14 C         138.2293  141.3118  162.3681 C.3     1  UNL1        0.0259
     15 C         139.9852  139.8745  167.0425 C.3     1  UNL1        0.1131
     16 C         139.9471  140.8605  168.1723 C.ar    1  UNL1        0.0061
     17 C         140.5493  142.2233  167.9990 C.ar    1  UNL1       -0.0007
     18 C         140.5112  143.2093  169.1288 C.ar    1  UNL1        0.0204
     19 C         139.8708  142.8325  170.4318 C.ar    1  UNL1        0.0989
     20 N         139.2685  141.4697  170.6051 N.ar    1  UNL1       -0.2426
     21 C         139.3066  140.4837  169.4753 C.ar    1  UNL1        0.0951
     22 C         138.6075  142.4477  157.0039 C.2     1  UNL1       -0.0253
     23 C         137.2294  142.9197  156.6458 C.2     1  UNL1       -0.0303
     24 C         136.5646  142.4162  155.3991 C.3     1  UNL1        0.0257
     25 C         137.2777  141.4406  154.5104 C.3     1  UNL1        0.0050
     26 C         138.6557  140.9685  154.8685 C.3     1  UNL1        0.0050
     27 C         139.3206  141.4721  156.1153 C.3     1  UNL1        0.0261
     28 C         139.9150  146.3128  156.7439 C.2     1  UNL1        0.2837
     29 O         139.2704  147.0244  157.8964 O.2     1  UNL1       -0.2665
     30 N         140.3521  144.8857  156.8935 N.am    1  UNL1       -0.2779
     31 H         140.7752  144.4186  156.1371 H       1  UNL1        0.1553
     32 C         140.0759  148.7259  153.7082 C.ar    1  UNL1        0.1469
     33 C         140.8074  147.5325  153.1688 C.ar    1  UNL1        0.1282
     34 N         140.8361  146.4833  154.2404 N.ar    1  UNL1       -0.2205
     35 C         140.1224  147.0282  155.4420 C.ar    1  UNL1        0.1958
     36 N         139.6526  148.4142  155.1130 N.ar    1  UNL1       -0.3257
     37 H         139.1540  149.0140  155.7137 H       1  UNL1        0.1682
     38 N         139.5517  151.2865  152.2355 N.1     1  UNL1       -0.1893
     39 C         139.8138  150.0062  152.9718 C.1     1  UNL1        0.1194
@<TRIPOS>BOND
     1    38    39    3
     2    39    32    1
     3    32    33   ar
     4    33    34   ar
     5    34    35   ar
     6    35    28    1
     7    28    29    2
     8    28    30   am
     9    30     1    1
    10     1     2   ar
    11     2     3   ar
    12     3     4   ar
    13     4     7    1
    14     7     8    1
    15     8     9    1
    16     9    10    1
    17    10    11   am
    18    11    12    2
    19    11    15    1
    20    15    16    1
    21    16    17   ar
    22    17    18   ar
    23    18    19   ar
    24    19    20   ar
    25    20    21   ar
    26    10    13    1
    27    13    14    1
    28     4     5   ar
    29     5     6   ar
    30     6    22    1
    31    22    23    2
    32    23    24    1
    33    24    25    1
    34    25    26    1
    35    26    27    1
    36    35    36   ar
    37    36    32   ar
    38     6     1   ar
    39    27    22    1
    40    14     7    1
    41    21    16   ar
    42    30    31    1
    43    36    37    1
