@<TRIPOS>MOLECULE
*****
 40 45 0 0 0
SMALL
GASTEIGER

@<TRIPOS>ATOM
      1 C         140.6378  139.6027  160.5008 C.2     1  UNL1        0.2495
      2 O         140.3162  138.9803  161.8271 O.2     1  UNL1       -0.2699
      3 N         140.6618  141.0958  160.3590 N.am    1  UNL1       -0.2674
      4 C         140.9651  141.8574  159.1029 C.3     1  UNL1        0.1185
      5 C         140.8774  143.3218  159.4160 C.3     1  UNL1        0.1288
      6 C         140.5198  143.4651  160.8657 C.3     1  UNL1        0.0554
      7 C         140.3865  142.0894  161.4485 C.3     1  UNL1        0.1542
      8 C         140.0390  141.7644  162.8710 C.2     1  UNL1        0.2438
      9 O         138.6072  141.5488  163.2628 O.2     1  UNL1       -0.2731
     10 N         141.1232  141.6550  163.9018 N.am    1  UNL1       -0.2779
     11 C         142.5916  141.8432  163.6602 C.3     1  UNL1        0.0939
     12 C         143.3054  141.6427  164.9642 C.3     1  UNL1        0.0276
     13 C         142.2781  141.3306  166.0117 C.3     1  UNL1        0.0439
     14 C         140.9295  141.3382  165.3551 C.3     1  UNL1        0.0978
     15 C         142.5515  141.0586  167.4613 C.ar    1  UNL1       -0.0208
     16 C         143.1210  142.1386  168.3325 C.ar    1  UNL1       -0.0042
     17 C         143.3944  141.8667  169.7821 C.ar    1  UNL1       -0.0003
     18 C         143.0982  140.5147  170.3604 C.ar    1  UNL1       -0.0000
     19 C         142.5286  139.4347  169.4891 C.ar    1  UNL1       -0.0003
     20 C         142.2553  139.7067  168.0396 C.ar    1  UNL1       -0.0042
     21 C         140.1388  137.5016  157.1711 C.ar    1  UNL1        0.1361
     22 C         139.8410  138.3724  158.3557 C.ar    1  UNL1        0.0411
     23 C         140.9356  138.7320  159.3162 C.ar    1  UNL1        0.0566
     24 C         142.3279  138.2208  159.0921 C.ar    1  UNL1        0.0044
     25 C         142.6256  137.3501  157.9076 C.ar    1  UNL1        0.0002
     26 C         141.5311  136.9905  156.9471 C.ar    1  UNL1        0.0274
     27 C         141.8288  136.1198  155.7625 C.3     1  UNL1        0.0952
     28 N         140.8759  135.0278  155.3760 N.3     1  UNL1       -0.3174
     29 H         140.8565  134.3184  156.1087 H       1  UNL1        0.1192
     30 H         141.1819  134.6037  154.5003 H       1  UNL1        0.1192
     31 C         138.6943  138.0746  155.0890 C.3     1  UNL1        0.2525
     32 O         139.0442  137.1420  156.2106 O.3     1  UNL1       -0.4717
     33 N         141.1069  144.4454  158.4492 N.ar    1  UNL1       -0.2307
     34 C         140.0958  145.0073  157.4942 C.ar    1  UNL1        0.1131
     35 C         140.7519  146.1136  156.7224 C.ar    1  UNL1        0.1005
     36 N         142.1685  146.2355  157.2004 N.ar    1  UNL1       -0.1332
     37 N         142.3879  145.2045  158.2677 N.ar    1  UNL1       -0.0641
     38 C         140.1050  146.9510  155.6593 C.3     1  UNL1        0.0437
     39 C         139.0195  147.8922  155.2284 C.3     1  UNL1        0.0064
     40 C         140.0701  147.4602  154.2488 C.3     1  UNL1        0.0064
@<TRIPOS>BOND
     1    31    32    1
     2    32    21    1
     3    21    22   ar
     4    22    23   ar
     5    23     1    1
     6     1     2    2
     7     1     3   am
     8     3     4    1
     9     4     5    1
    10     5    33    1
    11    33    34   ar
    12    34    35   ar
    13    35    38    1
    14    38    39    1
    15    39    40    1
    16    35    36   ar
    17    36    37   ar
    18     5     6    1
    19     6     7    1
    20     7     8    1
    21     8     9    2
    22     8    10   am
    23    10    11    1
    24    11    12    1
    25    12    13    1
    26    13    15    1
    27    15    16   ar
    28    16    17   ar
    29    17    18   ar
    30    18    19   ar
    31    19    20   ar
    32    13    14    1
    33    23    24   ar
    34    24    25   ar
    35    25    26   ar
    36    26    27    1
    37    27    28    1
    38    26    21   ar
    39     7     3    1
    40    14    10    1
    41    37    33   ar
    42    20    15   ar
    43    40    38    1
    44    28    29    1
    45    28    30    1
@<TRIPOS>MOLECULE
*****
 40 45 0 0 0
SMALL
GASTEIGER

@<TRIPOS>ATOM
      1 C         139.3892  142.7941  159.5639 C.2     1  UNL1        0.2495
      2 O         138.6080  143.2084  160.7756 O.2     1  UNL1       -0.2699
      3 N         139.9222  141.3961  159.4571 N.am    1  UNL1       -0.2674
      4 C         140.7164  140.8403  158.3124 C.3     1  UNL1        0.1185
      5 C         141.0397  139.4091  158.6241 C.3     1  UNL1        0.1288
      6 C         140.4453  139.0803  159.9615 C.3     1  UNL1        0.0554
      7 C         139.7547  140.3084  160.4763 C.3     1  UNL1        0.1542
      8 C         139.0248  140.4277  161.7813 C.2     1  UNL1        0.2438
      9 O         137.5334  140.2722  161.8234 O.2     1  UNL1       -0.2731
     10 N         139.7860  140.7025  163.0442 N.am    1  UNL1       -0.2779
     11 C         141.2711  140.8809  163.1573 C.3     1  UNL1        0.0939
     12 C         141.5989  141.1358  164.5987 C.3     1  UNL1        0.0276
     13 C         140.3164  141.1149  165.3764 C.3     1  UNL1        0.0439
     14 C         139.1961  140.8471  164.4157 C.3     1  UNL1        0.0978
     15 C         140.1785  141.3250  166.8553 C.ar    1  UNL1       -0.0208
     16 C         140.6093  142.6227  167.4718 C.ar    1  UNL1       -0.0042
     17 C         140.4714  142.8328  168.9506 C.ar    1  UNL1       -0.0003
     18 C         139.9028  141.7451  169.8128 C.ar    1  UNL1       -0.0000
     19 C         139.4720  140.4473  169.1962 C.ar    1  UNL1       -0.0003
     20 C         139.6099  140.2373  167.7175 C.ar    1  UNL1       -0.0042
     21 C         139.2441  144.5611  156.0133 C.ar    1  UNL1        0.1361
     22 C         138.9959  143.5773  157.1182 C.ar    1  UNL1        0.0411
     23 C         139.6374  143.7778  158.4591 C.ar    1  UNL1        0.0566
     24 C         140.5272  144.9622  158.6953 C.ar    1  UNL1        0.0044
     25 C         140.7754  145.9459  157.5905 C.ar    1  UNL1        0.0002
     26 C         140.1338  145.7454  156.2495 C.ar    1  UNL1        0.0274
     27 C         140.3820  146.7291  155.1447 C.3     1  UNL1        0.0952
     28 N         139.2271  147.3077  154.3822 N.3     1  UNL1       -0.3174
     29 H         138.7653  146.5687  153.8521 H       1  UNL1        0.1192
     30 H         139.5678  148.0240  153.7409 H       1  UNL1        0.1192
     31 C         137.1079  144.3101  154.5560 C.3     1  UNL1        0.2525
     32 O         138.6026  144.3605  154.6723 O.3     1  UNL1       -0.4717
     33 N         141.8202  138.4713  157.7516 N.ar    1  UNL1       -0.2307
     34 C         141.2771  137.2623  157.0494 C.ar    1  UNL1        0.1131
     35 C         142.4022  136.6217  156.2919 C.ar    1  UNL1        0.1005
     36 N         143.6407  137.4349  156.5259 N.ar    1  UNL1       -0.1332
     37 N         143.2811  138.5781  157.4281 N.ar    1  UNL1       -0.0641
     38 C         142.3057  135.3851  155.4484 C.3     1  UNL1        0.0437
     39 C         141.9636  133.9313  155.3088 C.3     1  UNL1        0.0064
     40 C         142.4806  134.6970  154.1271 C.3     1  UNL1        0.0064
@<TRIPOS>BOND
     1    31    32    1
     2    32    21    1
     3    21    22   ar
     4    22    23   ar
     5    23     1    1
     6     1     2    2
     7     1     3   am
     8     3     4    1
     9     4     5    1
    10     5    33    1
    11    33    34   ar
    12    34    35   ar
    13    35    38    1
    14    38    39    1
    15    39    40    1
    16    35    36   ar
    17    36    37   ar
    18     5     6    1
    19     6     7    1
    20     7     8    1
    21     8     9    2
    22     8    10   am
    23    10    11    1
    24    11    12    1
    25    12    13    1
    26    13    15    1
    27    15    16   ar
    28    16    17   ar
    29    17    18   ar
    30    18    19   ar
    31    19    20   ar
    32    13    14    1
    33    23    24   ar
    34    24    25   ar
    35    25    26   ar
    36    26    27    1
    37    27    28    1
    38    26    21   ar
    39     7     3    1
    40    14    10    1
    41    37    33   ar
    42    20    15   ar
    43    40    38    1
    44    28    29    1
    45    28    30    1
@<TRIPOS>MOLECULE
*****
 40 45 0 0 0
SMALL
GASTEIGER

@<TRIPOS>ATOM
      1 C         140.0027  138.3522  157.4311 C.2     1  UNL1        0.2495
      2 O         139.1702  137.2118  156.9246 O.2     1  UNL1       -0.2699
      3 N         141.3431  138.6322  156.8187 N.am    1  UNL1       -0.2674
      4 C         142.2826  139.7313  157.2178 C.3     1  UNL1        0.1185
      5 C         143.4994  139.6406  156.3454 C.3     1  UNL1        0.1288
      6 C         143.3120  138.4855  155.4071 C.3     1  UNL1        0.0554
      7 C         141.9793  137.8622  155.6996 C.3     1  UNL1        0.1542
      8 C         141.3869  136.6771  154.9964 C.2     1  UNL1        0.2438
      9 O         140.4453  136.8807  153.8465 O.2     1  UNL1       -0.2731
     10 N         141.7359  135.2883  155.4429 N.am    1  UNL1       -0.2779
     11 C         142.6576  134.9304  156.5709 C.3     1  UNL1        0.0939
     12 C         142.7160  133.4345  156.6650 C.3     1  UNL1        0.0276
     13 C         141.8303  132.8678  155.5952 C.3     1  UNL1        0.0439
     14 C         141.2246  134.0135  154.8399 C.3     1  UNL1        0.0978
     15 C         141.5922  131.4112  155.3277 C.ar    1  UNL1       -0.0208
     16 C         142.5847  130.3901  155.7989 C.ar    1  UNL1       -0.0042
     17 C         142.3466  128.9335  155.5314 C.ar    1  UNL1       -0.0003
     18 C         141.1159  128.4981  154.7926 C.ar    1  UNL1       -0.0000
     19 C         140.1234  129.5192  154.3214 C.ar    1  UNL1       -0.0003
     20 C         140.3615  130.9758  154.5889 C.ar    1  UNL1       -0.0042
     21 C         139.1097  139.6062  161.0890 C.ar    1  UNL1        0.1361
     22 C         139.6176  138.7457  159.9701 C.ar    1  UNL1        0.0411
     23 C         139.4949  139.2126  158.5499 C.ar    1  UNL1        0.0566
     24 C         138.8643  140.5399  158.2485 C.ar    1  UNL1        0.0044
     25 C         138.3565  141.4002  159.3674 C.ar    1  UNL1        0.0002
     26 C         138.4791  140.9334  160.7876 C.ar    1  UNL1        0.0274
     27 C         137.9713  141.7938  161.9064 C.3     1  UNL1        0.0952
     28 N         136.9161  141.2705  162.8353 N.3     1  UNL1       -0.3174
     29 H         136.0474  141.1314  162.3192 H       1  UNL1        0.1192
     30 H         136.7612  141.9426  163.5869 H       1  UNL1        0.1192
     31 C         138.7413  137.7756  162.8955 C.3     1  UNL1        0.2525
     32 O         139.2323  139.1393  162.5092 O.3     1  UNL1       -0.4717
     33 N         144.6940  140.5461  156.4015 N.ar    1  UNL1       -0.2307
     34 C         145.8910  140.4835  155.4997 C.ar    1  UNL1        0.1131
     35 C         146.8380  141.5719  155.9102 C.ar    1  UNL1        0.1005
     36 N         146.2263  142.3073  157.0656 N.ar    1  UNL1       -0.1332
     37 N         144.9011  141.6733  157.3693 N.ar    1  UNL1       -0.0641
     38 C         148.1639  141.8723  155.2764 C.3     1  UNL1        0.0437
     39 C         149.6593  141.7544  155.2745 C.3     1  UNL1        0.0064
     40 C         148.9651  142.5104  154.1806 C.3     1  UNL1        0.0064
@<TRIPOS>BOND
     1    31    32    1
     2    32    21    1
     3    21    22   ar
     4    22    23   ar
     5    23     1    1
     6     1     2    2
     7     1     3   am
     8     3     4    1
     9     4     5    1
    10     5    33    1
    11    33    34   ar
    12    34    35   ar
    13    35    38    1
    14    38    39    1
    15    39    40    1
    16    35    36   ar
    17    36    37   ar
    18     5     6    1
    19     6     7    1
    20     7     8    1
    21     8     9    2
    22     8    10   am
    23    10    11    1
    24    11    12    1
    25    12    13    1
    26    13    15    1
    27    15    16   ar
    28    16    17   ar
    29    17    18   ar
    30    18    19   ar
    31    19    20   ar
    32    13    14    1
    33    23    24   ar
    34    24    25   ar
    35    25    26   ar
    36    26    27    1
    37    27    28    1
    38    26    21   ar
    39     7     3    1
    40    14    10    1
    41    37    33   ar
    42    20    15   ar
    43    40    38    1
    44    28    29    1
    45    28    30    1
@<TRIPOS>MOLECULE
*****
 40 45 0 0 0
SMALL
GASTEIGER

@<TRIPOS>ATOM
      1 C         141.8786  139.3938  160.2581 C.2     1  UNL1        0.2495
      2 O         142.1692  138.7215  161.5672 O.2     1  UNL1       -0.2699
      3 N         141.8932  140.8907  160.1643 N.am    1  UNL1       -0.2674
      4 C         141.6236  141.6995  158.9301 C.3     1  UNL1        0.1185
      5 C         141.7437  143.1504  159.2912 C.3     1  UNL1        0.1288
      6 C         142.0877  143.2384  160.7486 C.3     1  UNL1        0.0554
      7 C         142.1800  141.8419  161.2882 C.3     1  UNL1        0.1542
      8 C         142.5026  141.4630  162.7032 C.2     1  UNL1        0.2438
      9 O         143.8143  140.8097  163.0243 O.2     1  UNL1       -0.2731
     10 N         141.5138  141.7372  163.7973 N.am    1  UNL1       -0.2779
     11 C         140.1692  142.3806  163.6293 C.3     1  UNL1        0.0939
     12 C         139.5202  142.4573  164.9795 C.3     1  UNL1        0.0276
     13 C         140.4637  141.8614  165.9818 C.3     1  UNL1        0.0439
     14 C         141.6957  141.4164  165.2512 C.3     1  UNL1        0.0978
     15 C         140.2181  141.7331  167.4560 C.ar    1  UNL1       -0.0208
     16 C         140.5133  142.8863  168.3686 C.ar    1  UNL1       -0.0042
     17 C         140.2677  142.7580  169.8428 C.ar    1  UNL1       -0.0003
     18 C         139.7271  141.4765  170.4044 C.ar    1  UNL1       -0.0000
     19 C         139.4320  140.3233  169.4917 C.ar    1  UNL1       -0.0003
     20 C         139.6775  140.4516  168.0176 C.ar    1  UNL1       -0.0042
     21 C         142.3601  136.9649  157.1567 C.ar    1  UNL1        0.1361
     22 C         142.6653  137.7896  158.3719 C.ar    1  UNL1        0.0411
     23 C         141.5734  138.5691  159.0429 C.ar    1  UNL1        0.0566
     24 C         140.1763  138.5238  158.4986 C.ar    1  UNL1        0.0044
     25 C         139.8712  137.6991  157.2835 C.ar    1  UNL1        0.0002
     26 C         140.9631  136.9197  156.6125 C.ar    1  UNL1        0.0274
     27 C         140.6579  136.0950  155.3973 C.3     1  UNL1        0.0952
     28 N         141.0416  134.6454  155.3589 N.3     1  UNL1       -0.3174
     29 H         142.0581  134.5623  155.3707 H       1  UNL1        0.1192
     30 H         140.6755  134.2192  154.5076 H       1  UNL1        0.1192
     31 C         144.2911  136.8318  155.4236 C.3     1  UNL1        0.2525
     32 O         143.4520  136.1854  156.4857 O.3     1  UNL1       -0.4717
     33 N         141.5534  144.3098  158.3587 N.ar    1  UNL1       -0.2307
     34 C         140.2746  144.6884  157.6722 C.ar    1  UNL1        0.1131
     35 C         140.5394  145.9067  156.8381 C.ar    1  UNL1        0.1005
     36 N         141.9818  146.2811  157.0091 N.ar    1  UNL1       -0.1332
     37 N         142.6086  145.2941  157.9489 N.ar    1  UNL1       -0.0641
     38 C         139.5375  146.6246  155.9831 C.3     1  UNL1        0.0437
     39 C         138.9924  147.9012  155.4148 C.3     1  UNL1        0.0064
     40 C         138.3475  146.5914  155.0706 C.3     1  UNL1        0.0064
@<TRIPOS>BOND
     1    31    32    1
     2    32    21    1
     3    21    22   ar
     4    22    23   ar
     5    23     1    1
     6     1     2    2
     7     1     3   am
     8     3     4    1
     9     4     5    1
    10     5    33    1
    11    33    34   ar
    12    34    35   ar
    13    35    38    1
    14    38    39    1
    15    39    40    1
    16    35    36   ar
    17    36    37   ar
    18     5     6    1
    19     6     7    1
    20     7     8    1
    21     8     9    2
    22     8    10   am
    23    10    11    1
    24    11    12    1
    25    12    13    1
    26    13    15    1
    27    15    16   ar
    28    16    17   ar
    29    17    18   ar
    30    18    19   ar
    31    19    20   ar
    32    13    14    1
    33    23    24   ar
    34    24    25   ar
    35    25    26   ar
    36    26    27    1
    37    27    28    1
    38    26    21   ar
    39     7     3    1
    40    14    10    1
    41    37    33   ar
    42    20    15   ar
    43    40    38    1
    44    28    29    1
    45    28    30    1
@<TRIPOS>MOLECULE
*****
 40 45 0 0 0
SMALL
GASTEIGER

@<TRIPOS>ATOM
      1 C         142.3055  140.8584  159.8151 C.2     1  UNL1        0.2495
      2 O         143.0504  140.5956  161.0904 O.2     1  UNL1       -0.2699
      3 N         141.8337  142.2456  159.4944 N.am    1  UNL1       -0.2674
      4 C         141.0809  142.6585  158.2644 C.3     1  UNL1        0.1185
      5 C         140.8137  144.1317  158.3571 C.3     1  UNL1        0.1288
      6 C         141.4014  144.6292  159.6444 C.3     1  UNL1        0.0554
      7 C         142.0318  143.4636  160.3472 C.3     1  UNL1        0.1542
      8 C         142.7365  143.5081  161.6706 C.2     1  UNL1        0.2438
      9 O         144.1810  143.9070  161.7381 O.2     1  UNL1       -0.2731
     10 N         141.9970  143.1538  162.9266 N.am    1  UNL1       -0.2779
     11 C         140.5583  142.7383  163.0152 C.3     1  UNL1        0.0939
     12 C         140.2383  142.4804  164.4577 C.3     1  UNL1        0.0276
     13 C         141.4791  142.7364  165.2608 C.3     1  UNL1        0.0439
     14 C         142.5660  143.1526  164.3144 C.3     1  UNL1        0.0978
     15 C         141.6101  142.6002  166.7488 C.ar    1  UNL1       -0.0208
     16 C         142.9271  142.2135  167.3535 C.ar    1  UNL1       -0.0042
     17 C         143.0581  142.0773  168.8415 C.ar    1  UNL1       -0.0003
     18 C         141.8719  142.3278  169.7249 C.ar    1  UNL1       -0.0000
     19 C         140.5548  142.7146  169.1201 C.ar    1  UNL1       -0.0003
     20 C         140.4239  142.8508  167.6321 C.ar    1  UNL1       -0.0042
     21 C         142.8541  138.0969  157.0181 C.ar    1  UNL1        0.1361
     22 C         143.1272  139.2214  157.9726 C.ar    1  UNL1        0.0411
     23 C         142.0325  139.7339  158.8608 C.ar    1  UNL1        0.0566
     24 C         140.6646  139.1217  158.7945 C.ar    1  UNL1        0.0044
     25 C         140.3916  137.9972  157.8401 C.ar    1  UNL1        0.0002
     26 C         141.4863  137.4848  156.9519 C.ar    1  UNL1        0.0274
     27 C         141.2133  136.3603  155.9975 C.3     1  UNL1        0.0952
     28 N         141.6390  136.4734  154.5637 N.3     1  UNL1       -0.3174
     29 H         141.1079  137.2161  154.1089 H       1  UNL1        0.1192
     30 H         141.4643  135.5891  154.0864 H       1  UNL1        0.1192
     31 C         144.6087  138.5044  155.1458 C.3     1  UNL1        0.2525
     32 O         143.9489  137.5845  156.1299 O.3     1  UNL1       -0.4717
     33 N         140.0866  144.9615  157.3409 N.ar    1  UNL1       -0.2307
     34 C         140.2021  146.4472  157.1701 C.ar    1  UNL1        0.1131
     35 C         139.3031  146.8552  156.0407 C.ar    1  UNL1        0.1005
     36 N         138.6320  145.6217  155.5136 N.ar    1  UNL1       -0.1332
     37 N         139.1162  144.4512  156.3172 N.ar    1  UNL1       -0.0641
     38 C         139.1094  148.2517  155.5284 C.3     1  UNL1        0.0437
     39 C         139.3281  149.2876  154.4659 C.3     1  UNL1        0.0064
     40 C         138.5550  149.6344  155.7037 C.3     1  UNL1        0.0064
@<TRIPOS>BOND
     1    31    32    1
     2    32    21    1
     3    21    22   ar
     4    22    23   ar
     5    23     1    1
     6     1     2    2
     7     1     3   am
     8     3     4    1
     9     4     5    1
    10     5    33    1
    11    33    34   ar
    12    34    35   ar
    13    35    38    1
    14    38    39    1
    15    39    40    1
    16    35    36   ar
    17    36    37   ar
    18     5     6    1
    19     6     7    1
    20     7     8    1
    21     8     9    2
    22     8    10   am
    23    10    11    1
    24    11    12    1
    25    12    13    1
    26    13    15    1
    27    15    16   ar
    28    16    17   ar
    29    17    18   ar
    30    18    19   ar
    31    19    20   ar
    32    13    14    1
    33    23    24   ar
    34    24    25   ar
    35    25    26   ar
    36    26    27    1
    37    27    28    1
    38    26    21   ar
    39     7     3    1
    40    14    10    1
    41    37    33   ar
    42    20    15   ar
    43    40    38    1
    44    28    29    1
    45    28    30    1
@<TRIPOS>MOLECULE
*****
 40 45 0 0 0
SMALL
GASTEIGER

@<TRIPOS>ATOM
      1 C         142.6386  143.3822  159.9613 C.2     1  UNL1        0.2495
      2 O         143.1484  143.9422  161.2561 O.2     1  UNL1       -0.2699
      3 N         142.8540  141.9343  159.6339 N.am    1  UNL1       -0.2674
      4 C         142.4038  141.2363  158.3848 C.3     1  UNL1        0.1185
      5 C         142.8289  139.8007  158.4771 C.3     1  UNL1        0.1288
      6 C         143.5419  139.6115  159.7831 C.3     1  UNL1        0.0554
      7 C         143.5573  140.9301  160.4981 C.3     1  UNL1        0.1542
      8 C         144.1689  141.1975  161.8414 C.2     1  UNL1        0.2438
      9 O         145.5770  141.7057  161.9367 O.2     1  UNL1       -0.2731
     10 N         143.3725  140.9567  163.0895 N.am    1  UNL1       -0.2779
     11 C         141.9610  140.4528  163.1511 C.3     1  UNL1        0.0939
     12 C         141.5638  140.3621  164.5947 C.3     1  UNL1        0.0276
     13 C         142.7298  140.8099  165.4253 C.3     1  UNL1        0.0439
     14 C         143.8476  141.1774  164.4950 C.3     1  UNL1        0.0978
     15 C         142.7708  140.8783  166.9232 C.ar    1  UNL1       -0.0208
     16 C         143.1055  142.1712  167.6060 C.ar    1  UNL1       -0.0042
     17 C         143.1464  142.2396  169.1039 C.ar    1  UNL1       -0.0003
     18 C         142.8528  141.0150  169.9189 C.ar    1  UNL1       -0.0000
     19 C         142.5181  139.7221  169.2360 C.ar    1  UNL1       -0.0003
     20 C         142.4771  139.6538  167.7382 C.ar    1  UNL1       -0.0042
     21 C         141.6537  145.2550  156.6038 C.ar    1  UNL1        0.1361
     22 C         142.3789  144.3671  157.5712 C.ar    1  UNL1        0.0411
     23 C         141.9135  144.2700  158.9939 C.ar    1  UNL1        0.0566
     24 C         140.7229  145.0609  159.4492 C.ar    1  UNL1        0.0044
     25 C         139.9978  145.9487  158.4818 C.ar    1  UNL1        0.0002
     26 C         140.4632  146.0458  157.0591 C.ar    1  UNL1        0.0274
     27 C         139.7381  146.9337  156.0917 C.3     1  UNL1        0.0952
     28 N         138.8237  148.0084  156.6005 N.3     1  UNL1       -0.3174
     29 H         138.0259  147.5813  157.0712 H       1  UNL1        0.1192
     30 H         138.4942  148.5732  155.8177 H       1  UNL1        0.1192
     31 C         143.2716  144.5153  154.7103 C.3     1  UNL1        0.2525
     32 O         142.1191  145.3521  155.1811 O.3     1  UNL1       -0.4717
     33 N         142.5840  138.7406  157.4445 N.ar    1  UNL1       -0.2307
     34 C         142.8021  137.2675  157.6244 C.ar    1  UNL1        0.1131
     35 C         142.4309  136.5840  156.3418 C.ar    1  UNL1        0.1005
     36 N         141.9834  137.6347  155.3692 N.ar    1  UNL1       -0.1332
     37 N         142.0780  138.9676  156.0507 N.ar    1  UNL1       -0.0641
     38 C         142.4959  135.1088  156.0780 C.3     1  UNL1        0.0437
     39 C         143.2910  133.8409  155.9777 C.3     1  UNL1        0.0064
     40 C         141.8132  133.8216  155.7217 C.3     1  UNL1        0.0064
@<TRIPOS>BOND
     1    31    32    1
     2    32    21    1
     3    21    22   ar
     4    22    23   ar
     5    23     1    1
     6     1     2    2
     7     1     3   am
     8     3     4    1
     9     4     5    1
    10     5    33    1
    11    33    34   ar
    12    34    35   ar
    13    35    38    1
    14    38    39    1
    15    39    40    1
    16    35    36   ar
    17    36    37   ar
    18     5     6    1
    19     6     7    1
    20     7     8    1
    21     8     9    2
    22     8    10   am
    23    10    11    1
    24    11    12    1
    25    12    13    1
    26    13    15    1
    27    15    16   ar
    28    16    17   ar
    29    17    18   ar
    30    18    19   ar
    31    19    20   ar
    32    13    14    1
    33    23    24   ar
    34    24    25   ar
    35    25    26   ar
    36    26    27    1
    37    27    28    1
    38    26    21   ar
    39     7     3    1
    40    14    10    1
    41    37    33   ar
    42    20    15   ar
    43    40    38    1
    44    28    29    1
    45    28    30    1
@<TRIPOS>MOLECULE
*****
 40 45 0 0 0
SMALL
GASTEIGER

@<TRIPOS>ATOM
      1 C         141.9039  138.9559  158.6818 C.2     1  UNL1        0.2495
      2 O         140.9991  139.0158  159.8767 O.2     1  UNL1       -0.2699
      3 N         142.9536  140.0088  158.4824 N.am    1  UNL1       -0.2674
      4 C         143.9256  140.0799  157.3421 C.3     1  UNL1        0.1185
      5 C         144.7882  141.2905  157.5432 C.3     1  UNL1        0.1288
      6 C         144.3494  141.9675  158.8077 C.3     1  UNL1        0.0554
      7 C         143.2155  141.1754  159.3882 C.3     1  UNL1        0.1542
      8 C         142.4738  141.4939  160.6524 C.2     1  UNL1        0.2438
      9 O         141.1468  142.1904  160.5883 O.2     1  UNL1       -0.2731
     10 N         143.0589  141.1160  161.9809 N.am    1  UNL1       -0.2779
     11 C         144.3692  140.4198  162.2012 C.3     1  UNL1        0.0939
     12 C         144.5567  140.2414  163.6787 C.3     1  UNL1        0.0276
     13 C         143.3623  140.8275  164.3716 C.3     1  UNL1        0.0439
     14 C         142.4367  141.3680  163.3223 C.3     1  UNL1        0.0978
     15 C         143.1338  140.8662  165.8536 C.ar    1  UNL1       -0.0208
     16 C         143.2116  142.1703  166.5905 C.ar    1  UNL1       -0.0042
     17 C         142.9830  142.2090  168.0725 C.ar    1  UNL1       -0.0003
     18 C         142.6767  140.9436  168.8175 C.ar    1  UNL1       -0.0000
     19 C         142.5989  139.6395  168.0804 C.ar    1  UNL1       -0.0003
     20 C         142.8274  139.6008  166.5985 C.ar    1  UNL1       -0.0042
     21 C         142.6728  135.6724  156.5896 C.ar    1  UNL1        0.1361
     22 C         142.8176  136.7852  157.5850 C.ar    1  UNL1        0.0411
     23 C         141.7592  137.8432  157.6864 C.ar    1  UNL1        0.0566
     24 C         140.5559  137.7884  156.7924 C.ar    1  UNL1        0.0044
     25 C         140.4111  136.6757  155.7970 C.ar    1  UNL1        0.0002
     26 C         141.4696  135.6177  155.6956 C.ar    1  UNL1        0.0274
     27 C         141.3248  134.5050  154.7002 C.3     1  UNL1        0.0952
     28 N         142.5208  134.0250  153.9325 N.3     1  UNL1       -0.3174
     29 H         142.8472  134.7668  153.3131 H       1  UNL1        0.1192
     30 H         142.2638  133.2080  153.3786 H       1  UNL1        0.1192
     31 C         143.8476  133.5653  157.5541 C.3     1  UNL1        0.2525
     32 O         143.7312  134.6143  156.4882 O.3     1  UNL1       -0.4717
     33 N         145.8953  141.7443  156.6386 N.ar    1  UNL1       -0.2307
     34 C         146.1315  141.2790  155.2322 C.ar    1  UNL1        0.1131
     35 C         147.3428  141.9903  154.7060 C.ar    1  UNL1        0.1005
     36 N         147.8552  142.8951  155.7871 N.ar    1  UNL1       -0.1332
     37 N         146.9606  142.7431  156.9815 N.ar    1  UNL1       -0.0641
     38 C         147.9372  141.8256  153.3387 C.3     1  UNL1        0.0437
     39 C         147.9012  141.2078  151.9723 C.3     1  UNL1        0.0064
     40 C         149.0029  142.1582  152.3369 C.3     1  UNL1        0.0064
@<TRIPOS>BOND
     1    31    32    1
     2    32    21    1
     3    21    22   ar
     4    22    23   ar
     5    23     1    1
     6     1     2    2
     7     1     3   am
     8     3     4    1
     9     4     5    1
    10     5    33    1
    11    33    34   ar
    12    34    35   ar
    13    35    38    1
    14    38    39    1
    15    39    40    1
    16    35    36   ar
    17    36    37   ar
    18     5     6    1
    19     6     7    1
    20     7     8    1
    21     8     9    2
    22     8    10   am
    23    10    11    1
    24    11    12    1
    25    12    13    1
    26    13    15    1
    27    15    16   ar
    28    16    17   ar
    29    17    18   ar
    30    18    19   ar
    31    19    20   ar
    32    13    14    1
    33    23    24   ar
    34    24    25   ar
    35    25    26   ar
    36    26    27    1
    37    27    28    1
    38    26    21   ar
    39     7     3    1
    40    14    10    1
    41    37    33   ar
    42    20    15   ar
    43    40    38    1
    44    28    29    1
    45    28    30    1
@<TRIPOS>MOLECULE
*****
 40 45 0 0 0
SMALL
GASTEIGER

@<TRIPOS>ATOM
      1 C         142.8833  140.8645  160.2894 C.2     1  UNL1        0.2495
      2 O         143.3926  140.4474  161.6373 O.2     1  UNL1       -0.2699
      3 N         141.4068  140.9449  160.0375 N.am    1  UNL1       -0.2674
      4 C         140.7528  141.3442  158.7480 C.3     1  UNL1        0.1185
      5 C         139.2668  141.2861  158.9444 C.3     1  UNL1        0.1288
      6 C         139.0024  140.8510  160.3553 C.3     1  UNL1        0.0554
      7 C         140.3250  140.6401  161.0309 C.3     1  UNL1        0.1542
      8 C         140.5298  140.2014  162.4506 C.2     1  UNL1        0.2438
      9 O         140.4584  138.7451  162.8033 O.2     1  UNL1       -0.2731
     10 N         140.8059  141.2187  163.5177 N.am    1  UNL1       -0.2779
     11 C         140.9060  142.7019  163.3170 C.3     1  UNL1        0.0939
     12 C         141.1924  143.3315  164.6479 C.3     1  UNL1        0.0276
     13 C         141.2694  142.2375  165.6713 C.3     1  UNL1        0.0439
     14 C         141.0306  140.9318  164.9727 C.3     1  UNL1        0.0978
     15 C         141.5381  142.4176  167.1360 C.ar    1  UNL1       -0.0208
     16 C         142.9031  142.1328  167.6886 C.ar    1  UNL1       -0.0042
     17 C         143.1718  142.3129  169.1533 C.ar    1  UNL1       -0.0003
     18 C         142.0754  142.7778  170.0653 C.ar    1  UNL1       -0.0000
     19 C         140.7104  143.0625  169.5126 C.ar    1  UNL1       -0.0003
     20 C         140.4417  142.8824  168.0480 C.ar    1  UNL1       -0.0042
     21 C         145.0651  140.5587  156.9884 C.ar    1  UNL1        0.1361
     22 C         144.0978  140.2220  158.0844 C.ar    1  UNL1        0.0411
     23 C         143.8505  141.2012  159.1935 C.ar    1  UNL1        0.0566
     24 C         144.5706  142.5170  159.2066 C.ar    1  UNL1        0.0044
     25 C         145.5378  142.8537  158.1107 C.ar    1  UNL1        0.0002
     26 C         145.7851  141.8745  157.0016 C.ar    1  UNL1        0.0274
     27 C         146.7523  142.2112  155.9057 C.3     1  UNL1        0.0952
     28 N         147.9883  141.3829  155.7156 N.3     1  UNL1       -0.3174
     29 H         148.6004  141.4950  156.5238 H       1  UNL1        0.1192
     30 H         148.4767  141.6891  154.8741 H       1  UNL1        0.1192
     31 C         144.2233  139.2706  154.8950 C.3     1  UNL1        0.2525
     32 O         145.3123  139.5796  155.8793 O.3     1  UNL1       -0.4717
     33 N         138.2278  141.6069  157.9112 N.ar    1  UNL1       -0.2307
     34 C         137.1042  140.7103  157.4826 C.ar    1  UNL1        0.1131
     35 C         136.3119  141.4300  156.4318 C.ar    1  UNL1        0.1005
     36 N         136.9457  142.7714  156.2109 N.ar    1  UNL1       -0.1332
     37 N         138.1298  142.8808  157.1253 N.ar    1  UNL1       -0.0641
     38 C         135.0987  140.9010  155.7258 C.3     1  UNL1        0.0437
     39 C         133.9924  139.8935  155.6218 C.3     1  UNL1        0.0064
     40 C         134.1038  140.9924  154.6070 C.3     1  UNL1        0.0064
@<TRIPOS>BOND
     1    31    32    1
     2    32    21    1
     3    21    22   ar
     4    22    23   ar
     5    23     1    1
     6     1     2    2
     7     1     3   am
     8     3     4    1
     9     4     5    1
    10     5    33    1
    11    33    34   ar
    12    34    35   ar
    13    35    38    1
    14    38    39    1
    15    39    40    1
    16    35    36   ar
    17    36    37   ar
    18     5     6    1
    19     6     7    1
    20     7     8    1
    21     8     9    2
    22     8    10   am
    23    10    11    1
    24    11    12    1
    25    12    13    1
    26    13    15    1
    27    15    16   ar
    28    16    17   ar
    29    17    18   ar
    30    18    19   ar
    31    19    20   ar
    32    13    14    1
    33    23    24   ar
    34    24    25   ar
    35    25    26   ar
    36    26    27    1
    37    27    28    1
    38    26    21   ar
    39     7     3    1
    40    14    10    1
    41    37    33   ar
    42    20    15   ar
    43    40    38    1
    44    28    29    1
    45    28    30    1
@<TRIPOS>MOLECULE
*****
 40 45 0 0 0
SMALL
GASTEIGER

@<TRIPOS>ATOM
      1 C         140.7848  143.5414  159.4316 C.2     1  UNL1        0.2495
      2 O         140.3303  143.9237  160.8091 O.2     1  UNL1       -0.2699
      3 N         142.1936  143.0771  159.2087 N.am    1  UNL1       -0.2674
      4 C         142.7883  142.6639  157.8950 C.3     1  UNL1        0.1185
      5 C         144.2173  142.2759  158.1347 C.3     1  UNL1        0.1288
      6 C         144.5058  142.4492  159.5964 C.3     1  UNL1        0.0554
      7 C         143.2551  142.9444  160.2601 C.3     1  UNL1        0.1542
      8 C         143.0941  143.2527  161.7193 C.2     1  UNL1        0.2438
      9 O         143.3803  144.6339  162.2300 O.2     1  UNL1       -0.2731
     10 N         142.6470  142.1802  162.6678 N.am    1  UNL1       -0.2779
     11 C         142.3257  140.7606  162.3051 C.3     1  UNL1        0.0939
     12 C         141.9228  140.0418  163.5586 C.3     1  UNL1        0.0276
     13 C         141.9951  141.0172  164.6958 C.3     1  UNL1        0.0439
     14 C         142.4427  142.3387  164.1453 C.3     1  UNL1        0.0978
     15 C         141.6759  140.7227  166.1316 C.ar    1  UNL1       -0.0208
     16 C         140.4034  141.2362  166.7375 C.ar    1  UNL1       -0.0042
     17 C         140.0842  140.9417  168.1732 C.ar    1  UNL1       -0.0003
     18 C         141.0374  140.1337  169.0030 C.ar    1  UNL1       -0.0000
     19 C         142.3099  139.6203  168.3971 C.ar    1  UNL1       -0.0003
     20 C         142.6291  139.9148  166.9614 C.ar    1  UNL1       -0.0042
     21 C         139.0159  144.8038  156.1109 C.ar    1  UNL1        0.1361
     22 C         139.9702  144.7218  157.2653 C.ar    1  UNL1        0.0411
     23 C         139.8306  143.6234  158.2772 C.ar    1  UNL1        0.0566
     24 C         138.7366  142.6070  158.1347 C.ar    1  UNL1        0.0044
     25 C         137.7824  142.6890  156.9803 C.ar    1  UNL1        0.0002
     26 C         137.9220  143.7874  155.9684 C.ar    1  UNL1        0.0274
     27 C         136.9678  143.8695  154.8140 C.3     1  UNL1        0.0952
     28 N         137.4751  144.2117  153.4445 N.3     1  UNL1       -0.3174
     29 H         137.8285  145.1685  153.4421 H       1  UNL1        0.1192
     30 H         136.7147  144.1284  152.7697 H       1  UNL1        0.1192
     31 C         138.8751  147.3229  155.4905 C.3     1  UNL1        0.2525
     32 O         139.1556  145.9022  155.0989 O.3     1  UNL1       -0.4717
     33 N         145.1874  141.7983  157.0951 N.ar    1  UNL1       -0.2307
     34 C         146.5498  142.3684  156.8324 C.ar    1  UNL1        0.1131
     35 C         147.1698  141.5892  155.7106 C.ar    1  UNL1        0.1005
     36 N         146.1907  140.5376  155.2799 N.ar    1  UNL1       -0.1332
     37 N         144.9654  140.6668  156.1356 N.ar    1  UNL1       -0.0641
     38 C         148.5302  141.8210  155.1226 C.3     1  UNL1        0.0437
     39 C         149.3956  142.3684  154.0266 C.3     1  UNL1        0.0064
     40 C         150.0210  141.6749  155.2004 C.3     1  UNL1        0.0064
@<TRIPOS>BOND
     1    31    32    1
     2    32    21    1
     3    21    22   ar
     4    22    23   ar
     5    23     1    1
     6     1     2    2
     7     1     3   am
     8     3     4    1
     9     4     5    1
    10     5    33    1
    11    33    34   ar
    12    34    35   ar
    13    35    38    1
    14    38    39    1
    15    39    40    1
    16    35    36   ar
    17    36    37   ar
    18     5     6    1
    19     6     7    1
    20     7     8    1
    21     8     9    2
    22     8    10   am
    23    10    11    1
    24    11    12    1
    25    12    13    1
    26    13    15    1
    27    15    16   ar
    28    16    17   ar
    29    17    18   ar
    30    18    19   ar
    31    19    20   ar
    32    13    14    1
    33    23    24   ar
    34    24    25   ar
    35    25    26   ar
    36    26    27    1
    37    27    28    1
    38    26    21   ar
    39     7     3    1
    40    14    10    1
    41    37    33   ar
    42    20    15   ar
    43    40    38    1
    44    28    29    1
    45    28    30    1
