@<TRIPOS>MOLECULE
*****
 28 31 0 0 0
SMALL
GASTEIGER

@<TRIPOS>ATOM
      1 C         143.0679  137.6818  156.8331 C.3     1  UNL1        0.1834
      2 C         143.3364  139.1551  156.9167 C.3     1  UNL1        0.1130
      3 N         142.2142  139.7879  157.6849 N.3     1  UNL1       -0.2882
      4 C         141.2521  138.7057  158.0761 C.3     1  UNL1        0.1355
      5 C         141.7797  137.4039  157.5497 C.3     1  UNL1        0.0700
      6 H         141.7408  140.4775  157.1011 H       1  UNL1        0.1237
      7 C         139.9849  138.8923  158.8567 C.2     1  UNL1        0.2401
      8 O         138.7146  139.2587  158.1481 O.2     1  UNL1       -0.2734
      9 N         139.9879  138.7124  160.3459 N.am    1  UNL1       -0.2770
     10 C         141.3093  138.3467  160.9545 C.3     1  UNL1        0.0949
     11 C         141.6383  138.1003  162.3971 C.3     1  UNL1        0.0388
     12 C         140.7273  138.1587  163.5872 C.3     1  UNL1        0.0739
     13 N         139.2623  138.4780  163.6289 N.3     1  UNL1       -0.2725
     14 C         138.3464  138.8177  162.4906 C.3     1  UNL1        0.0938
     15 C         138.6695  138.9220  161.0295 C.3     1  UNL1        0.1107
     16 C         138.6295  138.4545  164.9886 C.3     1  UNL1        0.0576
     17 C         138.1472  139.4980  165.9524 C.3     1  UNL1        0.0160
     18 C         137.7344  138.4213  166.9117 C.3     1  UNL1        0.0028
     19 C         138.2167  137.3778  165.9481 C.3     1  UNL1        0.0160
     20 O         143.9353  136.6647  156.1524 O.3     1  UNL1       -0.4777
     21 C         142.4793  132.4356  155.6576 C.ar    1  UNL1        0.0686
     22 C         142.3233  133.4187  154.5354 C.ar    1  UNL1        0.0134
     23 C         142.8086  134.8283  154.7004 C.ar    1  UNL1        0.0376
     24 C         143.4500  135.2550  155.9875 C.ar    1  UNL1        0.1385
     25 C         143.6059  134.2720  157.1096 C.ar    1  UNL1        0.0376
     26 C         143.1206  132.8623  156.9447 C.ar    1  UNL1        0.0134
     27 N         141.5086  129.6163  155.3278 N.1     1  UNL1       -0.1908
     28 C         141.9939  131.0259  155.4927 C.1     1  UNL1        0.1004
@<TRIPOS>BOND
     1    27    28    3
     2    28    21    1
     3    21    22   ar
     4    22    23   ar
     5    23    24   ar
     6    24    20    1
     7    20     1    1
     8     1     2    1
     9     2     3    1
    10     3     4    1
    11     4     7    1
    12     7     8    2
    13     7     9   am
    14     9    10    1
    15    10    11    1
    16    11    12    1
    17    12    13    1
    18    13    16    1
    19    16    17    1
    20    17    18    1
    21    18    19    1
    22    13    14    1
    23    14    15    1
    24     4     5    1
    25    24    25   ar
    26    25    26   ar
    27    26    21   ar
    28     5     1    1
    29    15     9    1
    30    19    16    1
    31     3     6    1
@<TRIPOS>MOLECULE
*****
 28 31 0 0 0
SMALL
GASTEIGER

@<TRIPOS>ATOM
      1 C         142.6510  137.3721  156.8368 C.3     1  UNL1        0.1834
      2 C         142.9856  138.8316  156.9250 C.3     1  UNL1        0.1130
      3 N         143.1575  139.1809  158.3736 N.3     1  UNL1       -0.2882
      4 C         142.9291  137.9374  159.1806 C.3     1  UNL1        0.1355
      5 C         142.6161  136.8194  158.2308 C.3     1  UNL1        0.0700
      6 H         142.4803  139.8957  158.6400 H       1  UNL1        0.1237
      7 C         143.0010  137.8305  160.6751 C.2     1  UNL1        0.2401
      8 O         144.3183  137.5770  161.3463 O.2     1  UNL1       -0.2734
      9 N         141.7557  137.9772  161.4983 N.am    1  UNL1       -0.2770
     10 C         140.4928  138.2283  160.7289 C.3     1  UNL1        0.0949
     11 C         139.1002  138.4176  161.2533 C.3     1  UNL1        0.0388
     12 C         138.6267  138.4026  162.6764 C.3     1  UNL1        0.0739
     13 N         139.4287  138.1944  163.9268 N.3     1  UNL1       -0.2725
     14 C         140.9024  137.9500  164.0628 C.3     1  UNL1        0.0938
     15 C         141.9380  137.8533  162.9820 C.3     1  UNL1        0.1107
     16 C         138.6547  138.2363  165.2110 C.3     1  UNL1        0.0576
     17 C         138.0168  137.2093  166.0989 C.3     1  UNL1        0.0160
     18 C         137.5600  138.2955  167.0271 C.3     1  UNL1        0.0028
     19 C         138.1979  139.3225  166.1393 C.3     1  UNL1        0.0160
     20 O         142.3961  136.6006  155.5758 O.3     1  UNL1       -0.4777
     21 C         142.6226  132.1064  155.6031 C.ar    1  UNL1        0.0686
     22 C         143.8314  132.9205  155.9582 C.ar    1  UNL1        0.0134
     23 C         143.7559  134.4185  155.9491 C.ar    1  UNL1        0.0376
     24 C         142.4716  135.1025  155.5849 C.ar    1  UNL1        0.1385
     25 C         141.2628  134.2885  155.2299 C.ar    1  UNL1        0.0376
     26 C         141.3383  132.7904  155.2390 C.ar    1  UNL1        0.0134
     27 N         142.7735  129.1103  155.6213 N.1     1  UNL1       -0.1908
     28 C         142.6981  130.6083  155.6122 C.1     1  UNL1        0.1004
@<TRIPOS>BOND
     1    27    28    3
     2    28    21    1
     3    21    22   ar
     4    22    23   ar
     5    23    24   ar
     6    24    20    1
     7    20     1    1
     8     1     2    1
     9     2     3    1
    10     3     4    1
    11     4     7    1
    12     7     8    2
    13     7     9   am
    14     9    10    1
    15    10    11    1
    16    11    12    1
    17    12    13    1
    18    13    16    1
    19    16    17    1
    20    17    18    1
    21    18    19    1
    22    13    14    1
    23    14    15    1
    24     4     5    1
    25    24    25   ar
    26    25    26   ar
    27    26    21   ar
    28     5     1    1
    29    15     9    1
    30    19    16    1
    31     3     6    1
@<TRIPOS>MOLECULE
*****
 28 31 0 0 0
SMALL
GASTEIGER

@<TRIPOS>ATOM
      1 C         139.0596  142.0347  163.6555 C.3     1  UNL1        0.1834
      2 C         137.6762  142.5298  163.3538 C.3     1  UNL1        0.1130
      3 N         137.7945  143.6898  162.4102 N.3     1  UNL1       -0.2882
      4 C         139.2510  143.9117  162.1287 C.3     1  UNL1        0.1355
      5 C         140.0329  142.8888  162.8984 C.3     1  UNL1        0.0700
      6 H         137.3931  144.5250  162.8365 H       1  UNL1        0.1237
      7 C         139.8249  144.9705  161.2346 C.2     1  UNL1        0.2401
      8 O         140.1124  146.3379  161.7802 O.2     1  UNL1       -0.2734
      9 N         140.1113  144.6621  159.7949 N.am    1  UNL1       -0.2770
     10 C         139.7874  143.2661  159.3516 C.3     1  UNL1        0.0949
     11 C         139.9559  142.6536  157.9926 C.3     1  UNL1        0.0388
     12 C         140.4899  143.2858  156.7417 C.3     1  UNL1        0.0739
     13 N         140.9873  144.6865  156.5404 N.3     1  UNL1       -0.2725
     14 C         141.0735  145.8011  157.5405 C.3     1  UNL1        0.0938
     15 C         140.6836  145.7901  158.9889 C.3     1  UNL1        0.1107
     16 C         141.4610  145.0163  155.1559 C.3     1  UNL1        0.0576
     17 C         140.8015  145.4839  153.8924 C.3     1  UNL1        0.0160
     18 C         142.1311  145.4827  153.1980 C.3     1  UNL1        0.0028
     19 C         142.7907  145.0152  154.4614 C.3     1  UNL1        0.0160
     20 O         139.4085  140.8870  164.5562 O.3     1  UNL1       -0.4777
     21 C         140.1669  141.6111  168.9323 C.ar    1  UNL1        0.0686
     22 C         139.5846  140.3055  168.4780 C.ar    1  UNL1        0.0134
     23 C         139.3319  140.0642  167.0193 C.ar    1  UNL1        0.0376
     24 C         139.6613  141.1284  166.0149 C.ar    1  UNL1        0.1385
     25 C         140.2435  142.4340  166.4692 C.ar    1  UNL1        0.0376
     26 C         140.4963  142.6753  167.9279 C.ar    1  UNL1        0.0134
     27 N         140.6725  142.0938  171.8497 N.1     1  UNL1       -0.1908
     28 C         140.4197  141.8525  170.3910 C.1     1  UNL1        0.1004
@<TRIPOS>BOND
     1    27    28    3
     2    28    21    1
     3    21    22   ar
     4    22    23   ar
     5    23    24   ar
     6    24    20    1
     7    20     1    1
     8     1     2    1
     9     2     3    1
    10     3     4    1
    11     4     7    1
    12     7     8    2
    13     7     9   am
    14     9    10    1
    15    10    11    1
    16    11    12    1
    17    12    13    1
    18    13    16    1
    19    16    17    1
    20    17    18    1
    21    18    19    1
    22    13    14    1
    23    14    15    1
    24     4     5    1
    25    24    25   ar
    26    25    26   ar
    27    26    21   ar
    28     5     1    1
    29    15     9    1
    30    19    16    1
    31     3     6    1
@<TRIPOS>MOLECULE
*****
 28 31 0 0 0
SMALL
GASTEIGER

@<TRIPOS>ATOM
      1 C         144.1282  142.1383  164.2234 C.3     1  UNL1        0.1834
      2 C         145.6019  142.1467  163.9442 C.3     1  UNL1        0.1130
      3 N         145.7952  141.9609  162.4684 N.3     1  UNL1       -0.2882
      4 C         144.4410  141.8376  161.8354 C.3     1  UNL1        0.1355
      5 C         143.4107  141.9473  162.9200 C.3     1  UNL1        0.0700
      6 H         146.3371  141.1145  162.2942 H       1  UNL1        0.1237
      7 C         144.1654  141.6395  160.3743 C.2     1  UNL1        0.2401
      8 O         144.2757  142.7969  159.4266 O.2     1  UNL1       -0.2734
      9 N         143.7794  140.2839  159.8610 N.am    1  UNL1       -0.2770
     10 C         143.6980  139.1968  160.8914 C.3     1  UNL1        0.0949
     11 C         143.3429  137.7519  160.7004 C.3     1  UNL1        0.0388
     12 C         142.9816  137.0375  159.4320 C.3     1  UNL1        0.0739
     13 N         142.8862  137.5912  158.0412 N.3     1  UNL1       -0.2725
     14 C         143.1284  138.9963  157.5754 C.3     1  UNL1        0.0938
     15 C         143.5259  140.1947  158.3853 C.3     1  UNL1        0.1107
     16 C         142.4970  136.6102  156.9754 C.3     1  UNL1        0.0576
     17 C         141.2808  136.3960  156.1238 C.3     1  UNL1        0.0160
     18 C         141.9466  135.2228  155.4679 C.3     1  UNL1        0.0028
     19 C         143.1628  135.4369  156.3194 C.3     1  UNL1        0.0160
     20 O         143.4849  142.2937  165.5695 O.3     1  UNL1       -0.4777
     21 C         139.7987  139.9224  166.5887 C.ar    1  UNL1        0.0686
     22 C         141.1119  139.2228  166.3988 C.ar    1  UNL1        0.0134
     23 C         142.3405  140.0132  166.0591 C.ar    1  UNL1        0.0376
     24 C         142.2561  141.5033  165.9092 C.ar    1  UNL1        0.1385
     25 C         140.9430  142.2029  166.0991 C.ar    1  UNL1        0.0376
     26 C         139.7143  141.4125  166.4389 C.ar    1  UNL1        0.0134
     27 N         137.3412  138.3416  167.2682 N.1     1  UNL1       -0.1908
     28 C         138.5699  139.1320  166.9284 C.1     1  UNL1        0.1004
@<TRIPOS>BOND
     1    27    28    3
     2    28    21    1
     3    21    22   ar
     4    22    23   ar
     5    23    24   ar
     6    24    20    1
     7    20     1    1
     8     1     2    1
     9     2     3    1
    10     3     4    1
    11     4     7    1
    12     7     8    2
    13     7     9   am
    14     9    10    1
    15    10    11    1
    16    11    12    1
    17    12    13    1
    18    13    16    1
    19    16    17    1
    20    17    18    1
    21    18    19    1
    22    13    14    1
    23    14    15    1
    24     4     5    1
    25    24    25   ar
    26    25    26   ar
    27    26    21   ar
    28     5     1    1
    29    15     9    1
    30    19    16    1
    31     3     6    1
@<TRIPOS>MOLECULE
*****
 28 31 0 0 0
SMALL
GASTEIGER

@<TRIPOS>ATOM
      1 C         137.7954  141.7486  162.5577 C.3     1  UNL1        0.1834
      2 C         138.1826  142.9818  161.7967 C.3     1  UNL1        0.1130
      3 N         138.4105  142.5915  160.3665 N.3     1  UNL1       -0.2882
      4 C         138.1642  141.1170  160.2435 C.3     1  UNL1        0.1355
      5 C         137.7841  140.5960  161.5978 C.3     1  UNL1        0.0700
      6 H         139.3710  142.8055  160.0981 H       1  UNL1        0.1237
      7 C         138.2781  140.3058  158.9869 C.2     1  UNL1        0.2401
      8 O         137.1563  140.3039  157.9912 O.2     1  UNL1       -0.2734
      9 N         139.5138  139.4965  158.7260 N.am    1  UNL1       -0.2770
     10 C         140.5743  139.5684  159.7845 C.3     1  UNL1        0.0949
     11 C         141.9086  138.8839  159.8195 C.3     1  UNL1        0.0388
     12 C         142.5118  137.9585  158.8048 C.3     1  UNL1        0.0739
     13 N         141.9299  137.4890  157.5044 N.3     1  UNL1       -0.2725
     14 C         140.6010  137.8290  156.8976 C.3     1  UNL1        0.0938
     15 C         139.5257  138.7225  157.4413 C.3     1  UNL1        0.1107
     16 C         142.7908  136.5562  156.7052 C.3     1  UNL1        0.0576
     17 C         143.2672  135.1441  156.8758 C.3     1  UNL1        0.0160
     18 C         144.0083  135.2370  155.5749 C.3     1  UNL1        0.0028
     19 C         143.5319  136.6491  155.4043 C.3     1  UNL1        0.0160
     20 O         137.4757  141.6799  164.0217 O.3     1  UNL1       -0.4777
     21 C         140.6196  140.3441  166.9510 C.ar    1  UNL1        0.0686
     22 C         139.5147  139.4088  166.5582 C.ar    1  UNL1        0.0134
     23 C         138.4668  139.8540  165.5818 C.ar    1  UNL1        0.0376
     24 C         138.5237  141.2347  164.9981 C.ar    1  UNL1        0.1385
     25 C         139.6286  142.1699  165.3909 C.ar    1  UNL1        0.0376
     26 C         140.6766  141.7247  166.3674 C.ar    1  UNL1        0.0134
     27 N         142.7156  139.4536  168.9040 N.1     1  UNL1       -0.1908
     28 C         141.6676  139.8988  167.9275 C.1     1  UNL1        0.1004
@<TRIPOS>BOND
     1    27    28    3
     2    28    21    1
     3    21    22   ar
     4    22    23   ar
     5    23    24   ar
     6    24    20    1
     7    20     1    1
     8     1     2    1
     9     2     3    1
    10     3     4    1
    11     4     7    1
    12     7     8    2
    13     7     9   am
    14     9    10    1
    15    10    11    1
    16    11    12    1
    17    12    13    1
    18    13    16    1
    19    16    17    1
    20    17    18    1
    21    18    19    1
    22    13    14    1
    23    14    15    1
    24     4     5    1
    25    24    25   ar
    26    25    26   ar
    27    26    21   ar
    28     5     1    1
    29    15     9    1
    30    19    16    1
    31     3     6    1
@<TRIPOS>MOLECULE
*****
 28 31 0 0 0
SMALL
GASTEIGER

@<TRIPOS>ATOM
      1 C         138.7790  139.5816  167.5597 C.3     1  UNL1        0.1834
      2 C         137.8415  138.5174  167.0711 C.3     1  UNL1        0.1130
      3 N         137.6691  138.6952  165.5917 N.3     1  UNL1       -0.2882
      4 C         138.4999  139.8692  165.1659 C.3     1  UNL1        0.1355
      5 C         139.1859  140.4171  166.3822 C.3     1  UNL1        0.0700
      6 H         136.6875  138.8695  165.3761 H       1  UNL1        0.1237
      7 C         138.6232  140.4019  163.7691 C.2     1  UNL1        0.2401
      8 O         137.8056  141.5849  163.3427 O.2     1  UNL1       -0.2734
      9 N         139.5642  139.7516  162.7987 N.am    1  UNL1       -0.2770
     10 C         140.3337  138.5769  163.3262 C.3     1  UNL1        0.0949
     11 C         141.3403  137.7224  162.6143 C.3     1  UNL1        0.0388
     12 C         141.8260  137.8316  161.1994 C.3     1  UNL1        0.0739
     13 N         141.4251  138.8222  160.1467 N.3     1  UNL1       -0.2725
     14 C         140.4395  139.9483  160.2491 C.3     1  UNL1        0.0938
     15 C         139.6113  140.3618  161.4294 C.3     1  UNL1        0.1107
     16 C         142.0990  138.6661  158.8158 C.3     1  UNL1        0.0576
     17 C         142.6700  137.5130  158.0447 C.3     1  UNL1        0.0160
     18 C         143.0520  138.4452  156.9335 C.3     1  UNL1        0.0028
     19 C         142.4811  139.5983  157.7044 C.3     1  UNL1        0.0160
     20 O         139.2303  139.7761  168.9769 O.3     1  UNL1       -0.4777
     21 C         143.0191  142.0453  169.8403 C.ar    1  UNL1        0.0686
     22 C         141.6947  142.7472  169.8981 C.ar    1  UNL1        0.0134
     23 C         140.4319  141.9908  169.6103 C.ar    1  UNL1        0.0376
     24 C         140.4932  140.5325  169.2647 C.ar    1  UNL1        0.1385
     25 C         141.8175  139.8306  169.2069 C.ar    1  UNL1        0.0376
     26 C         143.0805  140.5869  169.4947 C.ar    1  UNL1        0.0134
     27 N         145.5451  143.5579  170.4159 N.1     1  UNL1       -0.1908
     28 C         144.2821  142.8016  170.1281 C.1     1  UNL1        0.1004
@<TRIPOS>BOND
     1    27    28    3
     2    28    21    1
     3    21    22   ar
     4    22    23   ar
     5    23    24   ar
     6    24    20    1
     7    20     1    1
     8     1     2    1
     9     2     3    1
    10     3     4    1
    11     4     7    1
    12     7     8    2
    13     7     9   am
    14     9    10    1
    15    10    11    1
    16    11    12    1
    17    12    13    1
    18    13    16    1
    19    16    17    1
    20    17    18    1
    21    18    19    1
    22    13    14    1
    23    14    15    1
    24     4     5    1
    25    24    25   ar
    26    25    26   ar
    27    26    21   ar
    28     5     1    1
    29    15     9    1
    30    19    16    1
    31     3     6    1
@<TRIPOS>MOLECULE
*****
 28 31 0 0 0
SMALL
GASTEIGER

@<TRIPOS>ATOM
      1 C         138.9413  139.1666  165.7374 C.3     1  UNL1        0.1834
      2 C         139.9352  138.2274  165.1209 C.3     1  UNL1        0.1130
      3 N         139.8131  138.3366  163.6299 N.3     1  UNL1       -0.2882
      4 C         138.7438  139.3432  163.3248 C.3     1  UNL1        0.1355
      5 C         138.2049  139.8562  164.6273 C.3     1  UNL1        0.0700
      6 H         139.5583  137.4308  163.2363 H       1  UNL1        0.1237
      7 C         138.2924  139.7631  161.9574 C.2     1  UNL1        0.2401
      8 O         137.2193  138.9888  161.2511 O.2     1  UNL1       -0.2734
      9 N         138.9142  140.9573  161.2962 N.am    1  UNL1       -0.2770
     10 C         139.9770  141.6598  162.0881 C.3     1  UNL1        0.0949
     11 C         140.7791  142.8697  161.7099 C.3     1  UNL1        0.0388
     12 C         140.7165  143.6758  160.4466 C.3     1  UNL1        0.0739
     13 N         139.8363  143.4712  159.2492 N.3     1  UNL1       -0.2725
     14 C         138.8014  142.4100  159.0196 C.3     1  UNL1        0.0938
     15 C         138.3911  141.2912  159.9307 C.3     1  UNL1        0.1107
     16 C         140.0147  144.4584  158.1341 C.3     1  UNL1        0.0576
     17 C         140.6618  145.8054  158.0033 C.3     1  UNL1        0.0160
     18 C         140.2669  145.8546  156.5570 C.3     1  UNL1        0.0028
     19 C         139.6198  144.5077  156.6878 C.3     1  UNL1        0.0160
     20 O         138.7222  139.3789  167.2061 O.3     1  UNL1       -0.4777
     21 C         141.4478  142.1157  169.5150 C.ar    1  UNL1        0.0686
     22 C         141.4923  142.1030  168.0157 C.ar    1  UNL1        0.0134
     23 C         140.5838  141.1908  167.2461 C.ar    1  UNL1        0.0376
     24 C         139.6307  140.2912  167.9757 C.ar    1  UNL1        0.1385
     25 C         139.5861  140.3038  169.4749 C.ar    1  UNL1        0.0376
     26 C         140.4947  141.2161  170.2446 C.ar    1  UNL1        0.0134
     27 N         143.2648  143.9401  171.0544 N.1     1  UNL1       -0.1908
     28 C         142.3563  143.0279  170.2847 C.1     1  UNL1        0.1004
@<TRIPOS>BOND
     1    27    28    3
     2    28    21    1
     3    21    22   ar
     4    22    23   ar
     5    23    24   ar
     6    24    20    1
     7    20     1    1
     8     1     2    1
     9     2     3    1
    10     3     4    1
    11     4     7    1
    12     7     8    2
    13     7     9   am
    14     9    10    1
    15    10    11    1
    16    11    12    1
    17    12    13    1
    18    13    16    1
    19    16    17    1
    20    17    18    1
    21    18    19    1
    22    13    14    1
    23    14    15    1
    24     4     5    1
    25    24    25   ar
    26    25    26   ar
    27    26    21   ar
    28     5     1    1
    29    15     9    1
    30    19    16    1
    31     3     6    1
@<TRIPOS>MOLECULE
*****
 28 31 0 0 0
SMALL
GASTEIGER

@<TRIPOS>ATOM
      1 C         141.8926  143.2042  163.7207 C.3     1  UNL1        0.1834
      2 C         142.7093  144.4483  163.9081 C.3     1  UNL1        0.1130
      3 N         142.2797  145.4452  162.8730 N.3     1  UNL1       -0.2882
      4 C         141.1974  144.8173  162.0458 C.3     1  UNL1        0.1355
      5 C         140.9581  143.4323  162.5697 C.3     1  UNL1        0.0700
      6 H         143.0716  145.6901  162.2786 H       1  UNL1        0.1237
      7 C         140.4803  145.4613  160.8965 C.2     1  UNL1        0.2401
      8 O         139.3145  146.3695  161.1539 O.2     1  UNL1       -0.2734
      9 N         140.9289  145.1972  159.4897 N.am    1  UNL1       -0.2770
     10 C         142.1030  144.2751  159.3434 C.3     1  UNL1        0.0949
     11 C         142.7823  143.8181  158.0864 C.3     1  UNL1        0.0388
     12 C         142.4552  144.1703  156.6656 C.3     1  UNL1        0.0739
     13 N         141.3682  145.0664  156.1505 N.3     1  UNL1       -0.2725
     14 C         140.3396  145.8317  156.9293 C.3     1  UNL1        0.0938
     15 C         140.1442  145.8898  158.4154 C.3     1  UNL1        0.1107
     16 C         141.3007  145.2172  154.6597 C.3     1  UNL1        0.0576
     17 C         140.9673  146.3388  153.7210 C.3     1  UNL1        0.0160
     18 C         141.2053  145.4305  152.5513 C.3     1  UNL1        0.0028
     19 C         141.5387  144.3089  153.4898 C.3     1  UNL1        0.0160
     20 O         141.9926  141.9519  164.5404 O.3     1  UNL1       -0.4777
     21 C         141.2509  142.1008  168.9763 C.ar    1  UNL1        0.0686
     22 C         142.3944  141.2959  168.4336 C.ar    1  UNL1        0.0134
     23 C         142.6417  141.2463  166.9551 C.ar    1  UNL1        0.0376
     24 C         141.7453  142.0016  166.0190 C.ar    1  UNL1        0.1385
     25 C         140.6018  142.8064  166.5616 C.ar    1  UNL1        0.0376
     26 C         140.3545  142.8560  168.0402 C.ar    1  UNL1        0.0134
     27 N         140.7563  142.2001  171.9336 N.1     1  UNL1       -0.1908
     28 C         141.0036  142.1504  170.4549 C.1     1  UNL1        0.1004
@<TRIPOS>BOND
     1    27    28    3
     2    28    21    1
     3    21    22   ar
     4    22    23   ar
     5    23    24   ar
     6    24    20    1
     7    20     1    1
     8     1     2    1
     9     2     3    1
    10     3     4    1
    11     4     7    1
    12     7     8    2
    13     7     9   am
    14     9    10    1
    15    10    11    1
    16    11    12    1
    17    12    13    1
    18    13    16    1
    19    16    17    1
    20    17    18    1
    21    18    19    1
    22    13    14    1
    23    14    15    1
    24     4     5    1
    25    24    25   ar
    26    25    26   ar
    27    26    21   ar
    28     5     1    1
    29    15     9    1
    30    19    16    1
    31     3     6    1
@<TRIPOS>MOLECULE
*****
 28 31 0 0 0
SMALL
GASTEIGER

@<TRIPOS>ATOM
      1 C         142.6600  138.2123  164.5693 C.3     1  UNL1        0.1834
      2 C         141.5565  137.1964  164.5737 C.3     1  UNL1        0.1130
      3 N         141.1432  136.9548  163.1522 N.3     1  UNL1       -0.2882
      4 C         141.9912  137.8214  162.2692 C.3     1  UNL1        0.1355
      5 C         142.9287  138.5986  163.1450 C.3     1  UNL1        0.0700
      6 H         140.1594  137.1960  163.0320 H       1  UNL1        0.1237
      7 C         141.9152  137.8975  160.7731 C.2     1  UNL1        0.2401
      8 O         142.9779  137.2518  159.9343 O.2     1  UNL1       -0.2734
      9 N         140.7764  138.6194  160.1157 N.am    1  UNL1       -0.2770
     10 C         139.7691  139.2289  161.0452 C.3     1  UNL1        0.0949
     11 C         138.5320  140.0059  160.7043 C.3     1  UNL1        0.0388
     12 C         137.9970  140.3653  159.3499 C.3     1  UNL1        0.0739
     13 N         138.5666  140.0364  158.0018 N.3     1  UNL1       -0.2725
     14 C         139.8121  139.2670  157.6752 C.3     1  UNL1        0.0938
     15 C         140.7955  138.6364  158.6160 C.3     1  UNL1        0.1107
     16 C         137.7878  140.5441  156.8247 C.3     1  UNL1        0.0576
     17 C         137.7758  140.2496  155.3539 C.3     1  UNL1        0.0160
     18 C         136.6863  141.2622  155.1599 C.3     1  UNL1        0.0028
     19 C         136.6982  141.5568  156.6307 C.3     1  UNL1        0.0160
     20 O         143.3702  138.7479  165.7771 O.3     1  UNL1       -0.4777
     21 C         141.4361  141.9371  168.2947 C.ar    1  UNL1        0.0686
     22 C         141.9216  140.6694  168.9328 C.ar    1  UNL1        0.0134
     23 C         142.5662  139.6064  168.0937 C.ar    1  UNL1        0.0376
     24 C         142.7255  139.8110  166.6163 C.ar    1  UNL1        0.1385
     25 C         142.2401  141.0786  165.9781 C.ar    1  UNL1        0.0376
     26 C         141.5954  142.1417  166.8172 C.ar    1  UNL1        0.0134
     27 N         140.1466  144.0633  169.9729 N.1     1  UNL1       -0.1908
     28 C         140.7914  143.0002  169.1338 C.1     1  UNL1        0.1004
@<TRIPOS>BOND
     1    27    28    3
     2    28    21    1
     3    21    22   ar
     4    22    23   ar
     5    23    24   ar
     6    24    20    1
     7    20     1    1
     8     1     2    1
     9     2     3    1
    10     3     4    1
    11     4     7    1
    12     7     8    2
    13     7     9   am
    14     9    10    1
    15    10    11    1
    16    11    12    1
    17    12    13    1
    18    13    16    1
    19    16    17    1
    20    17    18    1
    21    18    19    1
    22    13    14    1
    23    14    15    1
    24     4     5    1
    25    24    25   ar
    26    25    26   ar
    27    26    21   ar
    28     5     1    1
    29    15     9    1
    30    19    16    1
    31     3     6    1
