@<TRIPOS>MOLECULE
*****
 35 39 0 0 0
SMALL
GASTEIGER

@<TRIPOS>ATOM
      1 N         138.6849  139.1836  164.8951 N.3     1  UNL1       -0.2715
      2 C         138.0576  140.3548  164.1989 C.3     1  UNL1        0.0726
      3 C         138.0801  140.4370  162.7013 C.3     1  UNL1        0.0260
      4 C         138.7299  139.3481  161.9000 C.3     1  UNL1        0.0737
      5 C         139.3395  138.3408  160.9707 C.3     1  UNL1        0.0306
      6 C         139.1331  138.8223  159.5651 C.3     1  UNL1        0.1001
      7 N         138.3958  140.1272  159.6257 N.am    1  UNL1       -0.2425
      8 C         138.1466  140.4522  161.0687 C.2     1  UNL1        0.2296
      9 O         137.4384  141.6677  161.5892 O.2     1  UNL1       -0.2745
     10 C         139.3571  138.1769  162.5963 C.3     1  UNL1        0.0260
     11 C         139.3346  138.0947  164.0938 C.3     1  UNL1        0.0726
     12 C         137.9806  140.9608  158.4499 C.ar    1  UNL1        0.1574
     13 C         138.6938  142.2465  158.1528 C.ar    1  UNL1        0.0414
     14 C         138.2785  143.0801  156.9769 C.ar    1  UNL1        0.0651
     15 C         137.1502  142.6279  156.0980 C.ar    1  UNL1        0.2766
     16 O         136.7350  143.4615  154.9221 O.2     1  UNL1       -0.2655
     17 N         136.4369  141.3421  156.3951 N.ar    1  UNL1       -0.2134
     18 C         135.3086  140.8900  155.5163 C.3     1  UNL1        0.1571
     19 N         136.8522  140.5086  157.5711 N.ar    1  UNL1       -0.1513
     20 C         138.6624  139.1013  166.3927 C.3     1  UNL1        0.0888
     21 C         137.5408  138.3881  167.0879 C.3     1  UNL1        0.0203
     22 C         139.7616  139.7322  167.1951 C.3     1  UNL1        0.1469
     23 O         139.6015  139.9114  168.6757 O.3     1  UNL1       -0.3787
     24 H         138.7367  139.5690  168.9512 H       1  UNL1        0.2108
     25 C         140.0834  142.6033  166.3870 C.3     1  UNL1        0.0306
     26 C         141.1818  141.6194  166.1128 C.ar    1  UNL1       -0.0238
     27 C         141.0210  140.1838  166.5168 C.ar    1  UNL1        0.0014
     28 C         142.1195  139.1999  166.2426 C.ar    1  UNL1       -0.0020
     29 C         143.3788  139.6515  165.5643 C.ar    1  UNL1        0.0060
     30 C         143.5397  141.0871  165.1603 C.ar    1  UNL1        0.0748
     31 C         142.4413  142.0710  165.4345 C.ar    1  UNL1        0.0233
     32 C         142.8816  143.4113  164.9250 C.3     1  UNL1        0.2352
     33 O         144.2523  143.2557  164.3359 O.3     1  UNL1       -0.4404
     34 C         144.6590  141.8193  164.4813 C.2     1  UNL1        0.3413
     35 O         145.9571  141.2202  164.0274 O.2     1  UNL1       -0.2449
@<TRIPOS>BOND
     1    25    26    1
     2    26    27   ar
     3    27    22    1
     4    22    23    1
     5    22    20    1
     6    20    21    1
     7    20     1    1
     8     1     2    1
     9     2     3    1
    10     3     4    1
    11     4     5    1
    12     5     6    1
    13     6     7    1
    14     7    12    1
    15    12    13   ar
    16    13    14   ar
    17    14    15   ar
    18    15    16    2
    19    15    17   ar
    20    17    18    1
    21    17    19   ar
    22     7     8   am
    23     8     9    2
    24     4    10    1
    25    10    11    1
    26    27    28   ar
    27    28    29   ar
    28    29    30   ar
    29    30    31   ar
    30    31    32    1
    31    32    33    1
    32    33    34    1
    33    34    35    2
    34    31    26   ar
    35    11     1    1
    36    34    30    1
    37     8     4    1
    38    19    12   ar
    39    23    24    1
@<TRIPOS>MOLECULE
*****
 35 39 0 0 0
SMALL
GASTEIGER

@<TRIPOS>ATOM
      1 N         138.6372  139.1598  164.8449 N.3     1  UNL1       -0.2715
      2 C         137.9645  140.2958  164.1331 C.3     1  UNL1        0.0726
      3 C         138.0130  140.3768  162.6361 C.3     1  UNL1        0.0260
      4 C         138.7343  139.3217  161.8509 C.3     1  UNL1        0.0737
      5 C         139.4140  138.3459  160.9367 C.3     1  UNL1        0.0306
      6 C         139.2115  138.8138  159.5260 C.3     1  UNL1        0.1001
      7 N         138.4066  140.0789  159.5683 N.am    1  UNL1       -0.2425
      8 C         138.1117  140.3928  161.0052 C.2     1  UNL1        0.2296
      9 O         137.3312  141.5709  161.5081 O.2     1  UNL1       -0.2745
     10 C         139.4071  138.1857  162.5627 C.3     1  UNL1        0.0260
     11 C         139.3586  138.1047  164.0597 C.3     1  UNL1        0.0726
     12 C         137.9728  140.8880  158.3822 C.ar    1  UNL1        0.1574
     13 C         138.6919  142.1584  158.0373 C.ar    1  UNL1        0.0414
     14 C         138.2581  142.9675  156.8511 C.ar    1  UNL1        0.0651
     15 C         137.1051  142.5063  156.0097 C.ar    1  UNL1        0.2766
     16 O         136.6712  143.3154  154.8235 O.2     1  UNL1       -0.2655
     17 N         136.3859  141.2358  156.3546 N.ar    1  UNL1       -0.2134
     18 C         135.2329  140.7746  155.5132 C.3     1  UNL1        0.1571
     19 N         136.8198  140.4268  157.5408 N.ar    1  UNL1       -0.1513
     20 C         138.5887  139.0788  166.3420 C.3     1  UNL1        0.0888
     21 C         137.5526  138.2272  167.0138 C.3     1  UNL1        0.0203
     22 C         139.5763  139.8493  167.1672 C.3     1  UNL1        0.1469
     23 O         139.6336  139.6455  168.6522 O.3     1  UNL1       -0.3787
     24 H         138.9709  138.9874  168.9141 H       1  UNL1        0.2108
     25 C         142.2802  138.9451  166.2338 C.3     1  UNL1        0.0306
     26 C         141.8585  140.3715  166.0407 C.ar    1  UNL1       -0.0238
     27 C         140.5065  140.8236  166.5074 C.ar    1  UNL1        0.0014
     28 C         140.0848  142.2502  166.3143 C.ar    1  UNL1       -0.0020
     29 C         141.0150  143.2245  165.6545 C.ar    1  UNL1        0.0060
     30 C         142.3670  142.7724  165.1878 C.ar    1  UNL1        0.0748
     31 C         142.7887  141.3459  165.3809 C.ar    1  UNL1        0.0233
     32 C         144.1721  141.1918  164.8220 C.3     1  UNL1        0.2352
     33 O         144.6054  142.5231  164.2835 O.3     1  UNL1       -0.4404
     34 C         143.4898  143.4999  164.5096 C.2     1  UNL1        0.3413
     35 O         143.4958  144.9497  164.1250 O.2     1  UNL1       -0.2449
@<TRIPOS>BOND
     1    25    26    1
     2    26    27   ar
     3    27    22    1
     4    22    23    1
     5    22    20    1
     6    20    21    1
     7    20     1    1
     8     1     2    1
     9     2     3    1
    10     3     4    1
    11     4     5    1
    12     5     6    1
    13     6     7    1
    14     7    12    1
    15    12    13   ar
    16    13    14   ar
    17    14    15   ar
    18    15    16    2
    19    15    17   ar
    20    17    18    1
    21    17    19   ar
    22     7     8   am
    23     8     9    2
    24     4    10    1
    25    10    11    1
    26    27    28   ar
    27    28    29   ar
    28    29    30   ar
    29    30    31   ar
    30    31    32    1
    31    32    33    1
    32    33    34    1
    33    34    35    2
    34    31    26   ar
    35    11     1    1
    36    34    30    1
    37     8     4    1
    38    19    12   ar
    39    23    24    1
@<TRIPOS>MOLECULE
*****
 35 39 0 0 0
SMALL
GASTEIGER

@<TRIPOS>ATOM
      1 N         138.7135  139.3591  164.7299 N.3     1  UNL1       -0.2715
      2 C         139.6896  138.4737  164.0135 C.3     1  UNL1        0.0726
      3 C         139.7579  138.4907  162.5152 C.3     1  UNL1        0.0260
      4 C         138.8501  139.3932  161.7332 C.3     1  UNL1        0.0737
      5 C         138.0102  140.2383  160.8219 C.3     1  UNL1        0.0306
      6 C         138.4113  139.9355  159.4085 C.3     1  UNL1        0.1001
      7 N         139.4991  138.9033  159.4464 N.am    1  UNL1       -0.2425
      8 C         139.7702  138.5681  160.8831 C.2     1  UNL1        0.2296
      9 O         140.7835  137.5812  161.3821 O.2     1  UNL1       -0.2745
     10 C         137.8740  140.2786  162.4496 C.3     1  UNL1        0.0260
     11 C         137.8057  140.2615  163.9479 C.3     1  UNL1        0.0726
     12 C         140.1936  138.3104  158.2565 C.ar    1  UNL1        0.1574
     13 C         141.6841  138.1422  158.2649 C.ar    1  UNL1        0.0414
     14 C         142.3787  137.5493  157.0749 C.ar    1  UNL1        0.0651
     15 C         141.5828  137.1245  155.8766 C.ar    1  UNL1        0.2766
     16 O         142.2775  136.5316  154.6866 O.2     1  UNL1       -0.2655
     17 N         140.0923  137.2927  155.8681 N.ar    1  UNL1       -0.2134
     18 C         139.2964  136.8679  154.6697 C.3     1  UNL1        0.1571
     19 N         139.3977  137.8856  157.0581 N.ar    1  UNL1       -0.1513
     20 C         138.6452  139.3420  166.2283 C.3     1  UNL1        0.0888
     21 C         137.6694  138.4403  166.9243 C.3     1  UNL1        0.0203
     22 C         139.5527  140.2268  167.0305 C.3     1  UNL1        0.1469
     23 O         139.5487  140.1444  168.5283 O.3     1  UNL1       -0.3787
     24 H         138.9075  139.4747  168.8135 H       1  UNL1        0.2108
     25 C         142.3827  139.4439  166.4156 C.3     1  UNL1        0.0306
     26 C         141.8792  140.8025  166.0276 C.ar    1  UNL1       -0.0238
     27 C         140.4642  141.1940  166.3350 C.ar    1  UNL1        0.0014
     28 C         139.9607  142.5527  165.9470 C.ar    1  UNL1       -0.0020
     29 C         140.8722  143.5199  165.2515 C.ar    1  UNL1        0.0060
     30 C         142.2872  143.1284  164.9441 C.ar    1  UNL1        0.0748
     31 C         142.7907  141.7698  165.3321 C.ar    1  UNL1        0.0233
     32 C         144.2237  141.6661  164.9013 C.3     1  UNL1        0.2352
     33 O         144.6059  142.9606  164.2470 O.3     1  UNL1       -0.4404
     34 C         143.4090  143.8644  164.2735 C.2     1  UNL1        0.3413
     35 O         143.3452  145.2593  163.7255 O.2     1  UNL1       -0.2449
@<TRIPOS>BOND
     1    25    26    1
     2    26    27   ar
     3    27    22    1
     4    22    23    1
     5    22    20    1
     6    20    21    1
     7    20     1    1
     8     1     2    1
     9     2     3    1
    10     3     4    1
    11     4     5    1
    12     5     6    1
    13     6     7    1
    14     7    12    1
    15    12    13   ar
    16    13    14   ar
    17    14    15   ar
    18    15    16    2
    19    15    17   ar
    20    17    18    1
    21    17    19   ar
    22     7     8   am
    23     8     9    2
    24     4    10    1
    25    10    11    1
    26    27    28   ar
    27    28    29   ar
    28    29    30   ar
    29    30    31   ar
    30    31    32    1
    31    32    33    1
    32    33    34    1
    33    34    35    2
    34    31    26   ar
    35    11     1    1
    36    34    30    1
    37     8     4    1
    38    19    12   ar
    39    23    24    1
@<TRIPOS>MOLECULE
*****
 35 39 0 0 0
SMALL
GASTEIGER

@<TRIPOS>ATOM
      1 N         142.4413  139.5232  165.2631 N.3     1  UNL1       -0.2715
      2 C         141.6379  138.5632  164.4367 C.3     1  UNL1        0.0726
      3 C         141.9627  138.3692  162.9852 C.3     1  UNL1        0.0260
      4 C         143.0907  139.1352  162.3601 C.3     1  UNL1        0.0737
      5 C         144.1837  139.8274  161.6010 C.3     1  UNL1        0.0306
      6 C         144.1479  139.3349  160.1845 C.3     1  UNL1        0.1001
      7 N         143.0328  138.3383  160.0683 N.am    1  UNL1       -0.2425
      8 C         142.3794  138.2149  161.4128 C.2     1  UNL1        0.2296
      9 O         141.2186  137.3272  161.7509 O.2     1  UNL1       -0.2745
     10 C         143.8941  140.0952  163.1865 C.3     1  UNL1        0.0260
     11 C         143.5693  140.2892  164.6380 C.3     1  UNL1        0.0726
     12 C         142.6401  137.5956  158.8257 C.ar    1  UNL1        0.1574
     13 C         141.5433  138.1255  157.9503 C.ar    1  UNL1        0.0414
     14 C         141.1505  137.3827  156.7077 C.ar    1  UNL1        0.0651
     15 C         141.8546  136.1102  156.3404 C.ar    1  UNL1        0.2766
     16 O         141.4618  135.3674  155.0978 O.2     1  UNL1       -0.2655
     17 N         142.9514  135.5803  157.2158 N.ar    1  UNL1       -0.2134
     18 C         143.6554  134.3077  156.8486 C.3     1  UNL1        0.1571
     19 N         143.3441  136.3231  158.4585 N.ar    1  UNL1       -0.1513
     20 C         142.1166  139.7173  166.7147 C.3     1  UNL1        0.0888
     21 C         142.8781  138.9594  167.7614 C.3     1  UNL1        0.0203
     22 C         141.0304  140.6693  167.1195 C.3     1  UNL1        0.1469
     23 O         140.5792  140.7285  168.5488 O.3     1  UNL1       -0.3787
     24 H         141.0878  140.0919  169.0750 H       1  UNL1        0.2108
     25 C         138.5702  139.7652  165.6601 C.3     1  UNL1        0.0306
     26 C         139.1653  141.1101  165.3653 C.ar    1  UNL1       -0.0238
     27 C         140.3954  141.5622  166.0950 C.ar    1  UNL1        0.0014
     28 C         140.9906  142.9072  165.8001 C.ar    1  UNL1       -0.0020
     29 C         140.3556  143.8000  164.7756 C.ar    1  UNL1        0.0060
     30 C         139.1255  143.3479  164.0460 C.ar    1  UNL1        0.0748
     31 C         138.5303  142.0030  164.3408 C.ar    1  UNL1        0.0233
     32 C         137.3223  141.8294  163.4687 C.3     1  UNL1        0.2352
     33 O         137.1709  143.0670  162.6349 O.3     1  UNL1       -0.4404
     34 C         138.2853  144.0055  162.9917 C.2     1  UNL1        0.3413
     35 O         138.5186  145.3633  162.3983 O.2     1  UNL1       -0.2449
@<TRIPOS>BOND
     1    25    26    1
     2    26    27   ar
     3    27    22    1
     4    22    23    1
     5    22    20    1
     6    20    21    1
     7    20     1    1
     8     1     2    1
     9     2     3    1
    10     3     4    1
    11     4     5    1
    12     5     6    1
    13     6     7    1
    14     7    12    1
    15    12    13   ar
    16    13    14   ar
    17    14    15   ar
    18    15    16    2
    19    15    17   ar
    20    17    18    1
    21    17    19   ar
    22     7     8   am
    23     8     9    2
    24     4    10    1
    25    10    11    1
    26    27    28   ar
    27    28    29   ar
    28    29    30   ar
    29    30    31   ar
    30    31    32    1
    31    32    33    1
    32    33    34    1
    33    34    35    2
    34    31    26   ar
    35    11     1    1
    36    34    30    1
    37     8     4    1
    38    19    12   ar
    39    23    24    1
@<TRIPOS>MOLECULE
*****
 35 39 0 0 0
SMALL
GASTEIGER

@<TRIPOS>ATOM
      1 N         139.3077  140.2481  161.4284 N.3     1  UNL1       -0.2715
      2 C         140.6937  139.7264  161.1901 C.3     1  UNL1        0.0726
      3 C         141.5824  140.3918  160.1815 C.3     1  UNL1        0.0260
      4 C         141.0851  141.5789  159.4111 C.3     1  UNL1        0.0737
      5 C         140.7278  142.7682  158.5697 C.3     1  UNL1        0.0306
      6 C         141.9091  143.0962  157.7053 C.3     1  UNL1        0.1001
      7 N         142.9964  142.1096  158.0126 N.am    1  UNL1       -0.2425
      8 C         142.4872  141.1719  159.0668 C.2     1  UNL1        0.2296
      9 O         143.2466  140.0280  159.6707 O.2     1  UNL1       -0.2745
     10 C         139.6991  142.1006  159.6494 C.3     1  UNL1        0.0260
     11 C         138.8104  141.4352  160.6580 C.3     1  UNL1        0.0726
     12 C         144.3545  142.0681  157.3772 C.ar    1  UNL1        0.1574
     13 C         144.5540  141.3407  156.0806 C.ar    1  UNL1        0.0414
     14 C         145.9121  141.2991  155.4452 C.ar    1  UNL1        0.0651
     15 C         147.0708  141.9849  156.1063 C.ar    1  UNL1        0.2766
     16 O         148.4290  141.9434  155.4709 O.2     1  UNL1       -0.2655
     17 N         146.8713  142.7124  157.4030 N.ar    1  UNL1       -0.2134
     18 C         148.0300  143.3982  158.0641 C.3     1  UNL1        0.1571
     19 N         145.5132  142.7539  158.0383 N.ar    1  UNL1       -0.1513
     20 C         138.4189  139.5827  162.4371 C.3     1  UNL1        0.0888
     21 C         138.1410  138.1120  162.3374 C.3     1  UNL1        0.0203
     22 C         137.8081  140.3879  163.5454 C.3     1  UNL1        0.1469
     23 O         136.6034  141.2405  163.2771 O.3     1  UNL1       -0.3787
     24 H         136.3497  141.1575  162.3445 H       1  UNL1        0.2108
     25 C         139.8075  142.4594  164.3886 C.3     1  UNL1        0.0306
     26 C         139.4016  141.3764  165.3436 C.ar    1  UNL1       -0.0238
     27 C         138.4018  140.3406  164.9220 C.ar    1  UNL1        0.0014
     28 C         137.9959  139.2576  165.8772 C.ar    1  UNL1       -0.0020
     29 C         138.5896  139.2103  167.2538 C.ar    1  UNL1        0.0060
     30 C         139.5894  140.2460  167.6754 C.ar    1  UNL1        0.0748
     31 C         139.9954  141.3291  166.7203 C.ar    1  UNL1        0.0233
     32 C         140.9958  142.2065  167.4125 C.3     1  UNL1        0.2352
     33 O         141.2081  141.6657  168.7955 O.3     1  UNL1       -0.4404
     34 C         140.3389  140.4541  168.9579 C.2     1  UNL1        0.3413
     35 O         140.2371  139.6004  170.1870 O.2     1  UNL1       -0.2449
@<TRIPOS>BOND
     1    25    26    1
     2    26    27   ar
     3    27    22    1
     4    22    23    1
     5    22    20    1
     6    20    21    1
     7    20     1    1
     8     1     2    1
     9     2     3    1
    10     3     4    1
    11     4     5    1
    12     5     6    1
    13     6     7    1
    14     7    12    1
    15    12    13   ar
    16    13    14   ar
    17    14    15   ar
    18    15    16    2
    19    15    17   ar
    20    17    18    1
    21    17    19   ar
    22     7     8   am
    23     8     9    2
    24     4    10    1
    25    10    11    1
    26    27    28   ar
    27    28    29   ar
    28    29    30   ar
    29    30    31   ar
    30    31    32    1
    31    32    33    1
    32    33    34    1
    33    34    35    2
    34    31    26   ar
    35    11     1    1
    36    34    30    1
    37     8     4    1
    38    19    12   ar
    39    23    24    1
@<TRIPOS>MOLECULE
*****
 35 39 0 0 0
SMALL
GASTEIGER

@<TRIPOS>ATOM
      1 N         139.5980  141.2176  163.8306 N.3     1  UNL1       -0.2715
      2 C         139.8253  140.9577  162.3709 C.3     1  UNL1        0.0726
      3 C         140.0493  142.1049  161.4308 C.3     1  UNL1        0.0260
      4 C         140.0460  143.5120  161.9505 C.3     1  UNL1        0.0737
      5 C         140.0700  144.9650  162.3224 C.3     1  UNL1        0.0306
      6 C         140.3242  145.7586  161.0751 C.3     1  UNL1        0.1001
      7 N         140.4573  144.7961  159.9323 N.am    1  UNL1       -0.2425
      8 C         140.2854  143.4076  160.4733 C.2     1  UNL1        0.2296
      9 O         140.3428  142.1378  159.6770 O.2     1  UNL1       -0.2745
     10 C         139.8187  143.7719  163.4101 C.3     1  UNL1        0.0260
     11 C         139.5947  142.6248  164.3502 C.3     1  UNL1        0.0726
     12 C         140.7167  145.1584  158.5001 C.ar    1  UNL1        0.1574
     13 C         141.8641  144.5324  157.7641 C.ar    1  UNL1        0.0414
     14 C         142.1235  144.8948  156.3319 C.ar    1  UNL1        0.0651
     15 C         141.2357  145.8831  155.6356 C.ar    1  UNL1        0.2766
     16 O         141.4951  146.2455  154.2033 O.2     1  UNL1       -0.2655
     17 N         140.0882  146.5092  156.3716 N.ar    1  UNL1       -0.2134
     18 C         139.2003  147.4975  155.6753 C.3     1  UNL1        0.1571
     19 N         139.8288  146.1467  157.8038 N.ar    1  UNL1       -0.1513
     20 C         139.3740  140.0704  164.7708 C.3     1  UNL1        0.0888
     21 C         138.0532  139.3597  164.7855 C.3     1  UNL1        0.0203
     22 C         140.4709  139.6340  165.6962 C.3     1  UNL1        0.1469
     23 O         141.4588  138.5965  165.2515 O.3     1  UNL1       -0.3787
     24 H         141.2473  138.3149  164.3477 H       1  UNL1        0.2108
     25 C         142.7780  141.4305  166.3668 C.3     1  UNL1        0.0306
     26 C         141.7334  141.1333  167.4015 C.ar    1  UNL1       -0.0238
     27 C         140.5799  140.2350  167.0661 C.ar    1  UNL1        0.0014
     28 C         139.5353  139.9378  168.1008 C.ar    1  UNL1       -0.0020
     29 C         139.6443  140.5388  169.4708 C.ar    1  UNL1        0.0060
     30 C         140.7978  141.4371  169.8061 C.ar    1  UNL1        0.0748
     31 C         141.8424  141.7343  168.7715 C.ar    1  UNL1        0.0233
     32 C         142.8584  142.6494  169.3881 C.3     1  UNL1        0.2352
     33 O         142.4418  142.9177  170.8039 O.3     1  UNL1       -0.4404
     34 C         141.1683  142.1685  171.0622 C.2     1  UNL1        0.3413
     35 O         140.4000  142.1532  172.3505 O.2     1  UNL1       -0.2449
@<TRIPOS>BOND
     1    25    26    1
     2    26    27   ar
     3    27    22    1
     4    22    23    1
     5    22    20    1
     6    20    21    1
     7    20     1    1
     8     1     2    1
     9     2     3    1
    10     3     4    1
    11     4     5    1
    12     5     6    1
    13     6     7    1
    14     7    12    1
    15    12    13   ar
    16    13    14   ar
    17    14    15   ar
    18    15    16    2
    19    15    17   ar
    20    17    18    1
    21    17    19   ar
    22     7     8   am
    23     8     9    2
    24     4    10    1
    25    10    11    1
    26    27    28   ar
    27    28    29   ar
    28    29    30   ar
    29    30    31   ar
    30    31    32    1
    31    32    33    1
    32    33    34    1
    33    34    35    2
    34    31    26   ar
    35    11     1    1
    36    34    30    1
    37     8     4    1
    38    19    12   ar
    39    23    24    1
@<TRIPOS>MOLECULE
*****
 35 39 0 0 0
SMALL
GASTEIGER

@<TRIPOS>ATOM
      1 N         143.3275  138.7126  164.8650 N.3     1  UNL1       -0.2715
      2 C         142.2014  138.0405  164.1369 C.3     1  UNL1        0.0726
      3 C         142.1316  138.1053  162.6400 C.3     1  UNL1        0.0260
      4 C         143.1879  138.8423  161.8711 C.3     1  UNL1        0.0737
      5 C         144.1662  139.5386  160.9721 C.3     1  UNL1        0.0306
      6 C         143.7104  139.3488  159.5556 C.3     1  UNL1        0.1001
      7 N         142.4504  138.5352  159.5792 N.am    1  UNL1       -0.2425
      8 C         142.1274  138.2222  161.0102 C.2     1  UNL1        0.2296
      9 O         140.9507  137.4285  161.4952 O.2     1  UNL1       -0.2745
     10 C         144.3139  139.5144  162.5992 C.3     1  UNL1        0.0260
     11 C         144.3837  139.4496  164.0961 C.3     1  UNL1        0.0726
     12 C         141.6533  138.1095  158.3820 C.ar    1  UNL1        0.1574
     13 C         140.3401  138.7694  158.0819 C.ar    1  UNL1        0.0414
     14 C         139.5430  138.3437  156.8847 C.ar    1  UNL1        0.0651
     15 C         140.0591  137.2580  155.9875 C.ar    1  UNL1        0.2766
     16 O         139.2620  136.8322  154.7903 O.2     1  UNL1       -0.2655
     17 N         141.3723  136.5980  156.2876 N.ar    1  UNL1       -0.2134
     18 C         141.8884  135.5123  155.3904 C.3     1  UNL1        0.1571
     19 N         142.1694  137.0238  157.4848 N.ar    1  UNL1       -0.1513
     20 C         143.3973  138.6478  166.3620 C.3     1  UNL1        0.0888
     21 C         144.1639  137.5451  167.0300 C.3     1  UNL1        0.0203
     22 C         142.7005  139.6857  167.1909 C.3     1  UNL1        0.1469
     23 O         143.0291  139.8268  168.6477 O.3     1  UNL1       -0.3787
     24 H         143.7062  139.1762  168.8909 H       1  UNL1        0.2108
     25 C         143.5262  142.3256  166.0293 C.3     1  UNL1        0.0306
     26 C         142.0879  141.9025  165.9823 C.ar    1  UNL1       -0.0238
     27 C         141.6751  140.5825  166.5632 C.ar    1  UNL1        0.0014
     28 C         140.2367  140.1595  166.5162 C.ar    1  UNL1       -0.0020
     29 C         139.2112  141.0563  165.8884 C.ar    1  UNL1        0.0060
     30 C         139.6241  142.3762  165.3076 C.ar    1  UNL1        0.0748
     31 C         141.0624  142.7993  165.3545 C.ar    1  UNL1        0.0233
     32 C         141.1705  144.1472  164.7054 C.3     1  UNL1        0.2352
     33 O         139.7990  144.5572  164.2573 O.3     1  UNL1       -0.4404
     34 C         138.8433  143.4627  164.6295 C.2     1  UNL1        0.3413
     35 O         137.3661  143.4558  164.3692 O.2     1  UNL1       -0.2449
@<TRIPOS>BOND
     1    25    26    1
     2    26    27   ar
     3    27    22    1
     4    22    23    1
     5    22    20    1
     6    20    21    1
     7    20     1    1
     8     1     2    1
     9     2     3    1
    10     3     4    1
    11     4     5    1
    12     5     6    1
    13     6     7    1
    14     7    12    1
    15    12    13   ar
    16    13    14   ar
    17    14    15   ar
    18    15    16    2
    19    15    17   ar
    20    17    18    1
    21    17    19   ar
    22     7     8   am
    23     8     9    2
    24     4    10    1
    25    10    11    1
    26    27    28   ar
    27    28    29   ar
    28    29    30   ar
    29    30    31   ar
    30    31    32    1
    31    32    33    1
    32    33    34    1
    33    34    35    2
    34    31    26   ar
    35    11     1    1
    36    34    30    1
    37     8     4    1
    38    19    12   ar
    39    23    24    1
@<TRIPOS>MOLECULE
*****
 35 39 0 0 0
SMALL
GASTEIGER

@<TRIPOS>ATOM
      1 N         140.4811  143.3982  161.2201 N.3     1  UNL1       -0.2715
      2 C         139.6986  142.3279  160.5186 C.3     1  UNL1        0.0726
      3 C         140.4150  141.2511  159.7588 C.3     1  UNL1        0.0260
      4 C         141.9139  141.2446  159.7006 C.3     1  UNL1        0.0737
      5 C         143.4005  141.1085  159.5544 C.3     1  UNL1        0.0306
      6 C         143.6748  139.8946  158.7170 C.3     1  UNL1        0.1001
      7 N         142.3576  139.2804  158.3456 N.am    1  UNL1       -0.2425
      8 C         141.2693  140.1147  158.9534 C.2     1  UNL1        0.2296
      9 O         139.7953  139.8634  158.8350 O.2     1  UNL1       -0.2745
     10 C         142.6963  142.3149  160.4021 C.3     1  UNL1        0.0260
     11 C         141.9800  143.3917  161.1619 C.3     1  UNL1        0.0726
     12 C         142.1630  138.0483  157.5127 C.ar    1  UNL1        0.1574
     13 C         141.1581  138.0468  156.3991 C.ar    1  UNL1        0.0414
     14 C         140.9634  136.8147  155.5661 C.ar    1  UNL1        0.0651
     15 C         141.7737  135.5839  155.8467 C.ar    1  UNL1        0.2766
     16 O         141.5790  134.3517  155.0137 O.2     1  UNL1       -0.2655
     17 N         142.7787  135.5853  156.9603 N.ar    1  UNL1       -0.2134
     18 C         143.5890  134.3546  157.2409 C.3     1  UNL1        0.1571
     19 N         142.9733  136.8176  157.7933 N.ar    1  UNL1       -0.1513
     20 C         139.7648  144.4751  161.9799 C.3     1  UNL1        0.0888
     21 C         140.1192  145.9149  161.7540 C.3     1  UNL1        0.0203
     22 C         138.6940  144.1119  162.9656 C.3     1  UNL1        0.1469
     23 O         137.3127  144.6772  162.8147 O.3     1  UNL1       -0.3787
     24 H         137.2826  145.2536  162.0351 H       1  UNL1        0.2108
     25 C         137.3831  141.4170  163.1022 C.3     1  UNL1        0.0306
     26 C         138.3490  141.8362  164.1705 C.ar    1  UNL1       -0.0238
     27 C         139.0044  143.1837  164.1022 C.ar    1  UNL1        0.0014
     28 C         139.9704  143.6029  165.1706 C.ar    1  UNL1       -0.0020
     29 C         140.2808  142.6746  166.3072 C.ar    1  UNL1        0.0060
     30 C         139.6253  141.3271  166.3755 C.ar    1  UNL1        0.0748
     31 C         138.6595  140.9079  165.3072 C.ar    1  UNL1        0.0233
     32 C         138.1715  139.5287  165.6386 C.3     1  UNL1        0.2352
     33 O         138.8359  139.0956  166.9118 O.3     1  UNL1       -0.4404
     34 C         139.7344  140.2070  167.3672 C.2     1  UNL1        0.3413
     35 O         140.5915  140.1997  168.5982 O.2     1  UNL1       -0.2449
@<TRIPOS>BOND
     1    25    26    1
     2    26    27   ar
     3    27    22    1
     4    22    23    1
     5    22    20    1
     6    20    21    1
     7    20     1    1
     8     1     2    1
     9     2     3    1
    10     3     4    1
    11     4     5    1
    12     5     6    1
    13     6     7    1
    14     7    12    1
    15    12    13   ar
    16    13    14   ar
    17    14    15   ar
    18    15    16    2
    19    15    17   ar
    20    17    18    1
    21    17    19   ar
    22     7     8   am
    23     8     9    2
    24     4    10    1
    25    10    11    1
    26    27    28   ar
    27    28    29   ar
    28    29    30   ar
    29    30    31   ar
    30    31    32    1
    31    32    33    1
    32    33    34    1
    33    34    35    2
    34    31    26   ar
    35    11     1    1
    36    34    30    1
    37     8     4    1
    38    19    12   ar
    39    23    24    1
@<TRIPOS>MOLECULE
*****
 35 39 0 0 0
SMALL
GASTEIGER

@<TRIPOS>ATOM
      1 N         139.8890  138.3677  164.0523 N.3     1  UNL1       -0.2715
      2 C         139.3250  138.4745  162.6666 C.3     1  UNL1        0.0726
      3 C         140.2299  138.3497  161.4769 C.3     1  UNL1        0.0260
      4 C         141.6989  138.1180  161.6729 C.3     1  UNL1        0.0737
      5 C         143.1804  137.8865  161.7124 C.3     1  UNL1        0.0306
      6 C         143.6783  137.8282  160.2986 C.3     1  UNL1        0.1001
      7 N         142.5045  138.0237  159.3853 N.am    1  UNL1       -0.2425
      8 C         141.2812  138.2028  160.2346 C.2     1  UNL1        0.2296
      9 O         139.8852  138.4273  159.7338 O.2     1  UNL1       -0.2745
     10 C         142.2629  138.0111  163.0586 C.3     1  UNL1        0.0260
     11 C         141.3580  138.1360  164.2484 C.3     1  UNL1        0.0726
     12 C         142.5466  138.0376  157.8860 C.ar    1  UNL1        0.1574
     13 C         141.4452  137.3919  157.0987 C.ar    1  UNL1        0.0414
     14 C         141.4874  137.4058  155.5994 C.ar    1  UNL1        0.0651
     15 C         142.6309  138.0655  154.8873 C.ar    1  UNL1        0.2766
     16 O         142.6731  138.0794  153.3879 O.2     1  UNL1       -0.2655
     17 N         143.7324  138.7113  155.6746 N.ar    1  UNL1       -0.2134
     18 C         144.8760  139.3710  154.9625 C.3     1  UNL1        0.1571
     19 N         143.6902  138.6973  157.1740 N.ar    1  UNL1       -0.1513
     20 C         138.9841  138.4925  165.2422 C.3     1  UNL1        0.0888
     21 C         138.3962  137.2634  165.8695 C.3     1  UNL1        0.0203
     22 C         138.6672  139.8464  165.8047 C.3     1  UNL1        0.1469
     23 O         137.5935  140.6862  165.1784 O.3     1  UNL1       -0.3787
     24 H         137.2073  140.2096  164.4271 H       1  UNL1        0.2108
     25 C         141.1001  141.5566  165.4089 C.3     1  UNL1        0.0306
     26 C         140.6404  141.2157  166.7954 C.ar    1  UNL1       -0.0238
     27 C         139.4240  140.3606  166.9933 C.ar    1  UNL1        0.0014
     28 C         138.9643  140.0198  168.3799 C.ar    1  UNL1       -0.0020
     29 C         139.7210  140.5340  169.5685 C.ar    1  UNL1        0.0060
     30 C         140.9375  141.3891  169.3706 C.ar    1  UNL1        0.0748
     31 C         141.3971  141.7300  167.9841 C.ar    1  UNL1        0.0233
     32 C         142.6226  142.5872  168.0996 C.3     1  UNL1        0.2352
     33 O         142.9203  142.7761  169.5576 O.3     1  UNL1       -0.4404
     34 C         141.8789  142.0356  170.3431 C.2     1  UNL1        0.3413
     35 O         141.7937  141.9557  171.8385 O.2     1  UNL1       -0.2449
@<TRIPOS>BOND
     1    25    26    1
     2    26    27   ar
     3    27    22    1
     4    22    23    1
     5    22    20    1
     6    20    21    1
     7    20     1    1
     8     1     2    1
     9     2     3    1
    10     3     4    1
    11     4     5    1
    12     5     6    1
    13     6     7    1
    14     7    12    1
    15    12    13   ar
    16    13    14   ar
    17    14    15   ar
    18    15    16    2
    19    15    17   ar
    20    17    18    1
    21    17    19   ar
    22     7     8   am
    23     8     9    2
    24     4    10    1
    25    10    11    1
    26    27    28   ar
    27    28    29   ar
    28    29    30   ar
    29    30    31   ar
    30    31    32    1
    31    32    33    1
    32    33    34    1
    33    34    35    2
    34    31    26   ar
    35    11     1    1
    36    34    30    1
    37     8     4    1
    38    19    12   ar
    39    23    24    1
