@<TRIPOS>MOLECULE
*****
 33 36 0 0 0
SMALL
GASTEIGER

@<TRIPOS>ATOM
      1 O         139.5673  140.9376  164.5449 O.2     1  UNL1       -0.2701
      2 C         139.8626  139.7509  165.4136 C.2     1  UNL1        0.2474
      3 N         140.7913  138.6781  164.9274 N.am    1  UNL1       -0.2986
      4 H         140.9852  137.8992  165.4976 H       1  UNL1        0.1498
      5 C         141.4248  138.7919  163.5725 C.3     1  UNL1        0.1200
      6 C         141.5263  137.5845  162.6882 C.3     1  UNL1        0.2250
      7 O         142.1598  137.6984  161.3333 O.3     1  UNL1       -0.4740
      8 C         142.6918  139.0196  160.8627 C.ar    1  UNL1        0.1346
      9 C         143.3253  139.1334  159.5078 C.ar    1  UNL1        0.0366
     10 C         143.8573  140.4546  159.0372 C.ar    1  UNL1        0.0031
     11 C         143.7557  141.6620  159.9215 C.ar    1  UNL1       -0.0000
     12 C         143.1223  141.5481  161.2764 C.ar    1  UNL1        0.0020
     13 C         142.5903  140.2269  161.7470 C.ar    1  UNL1        0.0137
     14 C         141.9568  140.1131  163.1019 C.3     1  UNL1        0.0528
     15 C         143.0208  142.7555  162.1607 C.ar    1  UNL1        0.0382
     16 C         144.1251  143.0742  163.1245 C.ar    1  UNL1        0.1022
     17 N         144.0235  144.2816  164.0088 N.ar    1  UNL1       -0.2224
     18 C         142.8177  145.1702  163.9292 C.ar    1  UNL1        0.1989
     19 N         141.7134  144.8515  162.9654 N.ar    1  UNL1       -0.2224
     20 C         141.8149  143.6441  162.0812 C.ar    1  UNL1        0.1022
     21 C         139.2291  139.6371  166.7685 C.ar    1  UNL1        0.0727
     22 C         139.8057  140.3886  167.9316 C.ar    1  UNL1        0.0109
     23 C         139.1722  140.2748  169.2864 C.ar    1  UNL1        0.0579
     24 C         137.9621  139.4094  169.4783 C.ar    1  UNL1        0.2249
     25 N         137.3855  138.6579  168.3152 N.ar    1  UNL1       -0.2100
     26 C         138.0190  138.7718  166.9604 C.ar    1  UNL1        0.1065
     27 O         137.3286  139.2956  170.8332 O.3     1  UNL1       -0.4599
     28 C         136.1449  138.3966  171.0346 C.3     1  UNL1        0.2159
     29 C         135.6265  138.1378  172.4181 C.3     1  UNL1        0.1505
     30 C         135.7812  136.7794  173.0351 C.3     1  UNL1        0.4014
     31 F         135.9358  135.4209  173.6521 F       1  UNL1       -0.1699
     32 F         137.2178  136.7475  172.6049 F       1  UNL1       -0.1699
     33 F         134.3446  136.8112  173.4654 F       1  UNL1       -0.1699
@<TRIPOS>BOND
     1     1     2    2
     2     2     3   am
     3     5     3    1
     4     5     6    1
     5     6     7    1
     6     7     8    1
     7     8     9   ar
     8     9    10   ar
     9    10    11   ar
    10    11    12   ar
    11    12    15    1
    12    15    16   ar
    13    16    17   ar
    14    17    18   ar
    15    18    19   ar
    16    19    20   ar
    17    12    13   ar
    18    13    14    1
    19     2    21    1
    20    21    22   ar
    21    22    23   ar
    22    23    24   ar
    23    24    27    1
    24    27    28    1
    25    28    29    1
    26    29    30    1
    27    30    31    1
    28    30    32    1
    29    30    33    1
    30    24    25   ar
    31    25    26   ar
    32    14     5    1
    33    26    21   ar
    34    13     8   ar
    35    20    15   ar
    36     3     4    1
@<TRIPOS>MOLECULE
*****
 33 36 0 0 0
SMALL
GASTEIGER

@<TRIPOS>ATOM
      1 O         139.5582  138.6153  160.4733 O.2     1  UNL1       -0.2701
      2 C         140.3580  139.2598  159.3802 C.2     1  UNL1        0.2474
      3 N         140.4788  140.7537  159.3201 N.am    1  UNL1       -0.2986
      4 H         141.0037  141.1767  158.6027 H       1  UNL1        0.1498
      5 C         139.7997  141.6032  160.3533 C.3     1  UNL1        0.1200
      6 C         138.3639  141.9983  160.1737 C.3     1  UNL1        0.2250
      7 O         137.6849  142.8478  161.2068 O.3     1  UNL1       -0.4740
      8 C         138.4418  143.3021  162.4195 C.ar    1  UNL1        0.1346
      9 C         137.7627  144.1516  163.4527 C.ar    1  UNL1        0.0366
     10 C         138.5196  144.6060  164.6654 C.ar    1  UNL1        0.0031
     11 C         139.9554  144.2108  164.8450 C.ar    1  UNL1       -0.0000
     12 C         140.6344  143.3614  163.8119 C.ar    1  UNL1        0.0020
     13 C         139.8776  142.9070  162.5992 C.ar    1  UNL1        0.0137
     14 C         140.5565  142.0576  161.5660 C.3     1  UNL1        0.0528
     15 C         142.0702  142.9663  163.9916 C.ar    1  UNL1        0.0382
     16 C         142.4188  141.7567  164.8073 C.ar    1  UNL1        0.1022
     17 N         143.8547  141.3616  164.9869 N.ar    1  UNL1       -0.2224
     18 C         144.9419  142.1761  164.3508 C.ar    1  UNL1        0.1989
     19 N         144.5933  143.3856  163.5351 N.ar    1  UNL1       -0.2224
     20 C         143.1575  143.7807  163.3554 C.ar    1  UNL1        0.1022
     21 C         141.0370  138.4103  158.3470 C.ar    1  UNL1        0.0727
     22 C         140.2263  137.7330  157.2822 C.ar    1  UNL1        0.0109
     23 C         140.9054  136.8836  156.2491 C.ar    1  UNL1        0.0579
     24 C         142.3951  136.7114  156.2809 C.ar    1  UNL1        0.2249
     25 N         143.2058  137.3887  157.3457 N.ar    1  UNL1       -0.2100
     26 C         142.5268  138.2382  158.3788 C.ar    1  UNL1        0.1065
     27 O         143.0742  135.8619  155.2477 O.3     1  UNL1       -0.4599
     28 C         142.8708  134.3758  155.2471 C.3     1  UNL1        0.2159
     29 C         142.7808  133.6306  156.5457 C.3     1  UNL1        0.1505
     30 C         144.0193  133.3803  157.3542 C.3     1  UNL1        0.4014
     31 F         145.2578  133.1300  158.1626 F       1  UNL1       -0.1699
     32 F         143.4654  134.2236  158.4640 F       1  UNL1       -0.1699
     33 F         144.5733  132.5370  156.2443 F       1  UNL1       -0.1699
@<TRIPOS>BOND
     1     1     2    2
     2     2     3   am
     3     5     3    1
     4     5     6    1
     5     6     7    1
     6     7     8    1
     7     8     9   ar
     8     9    10   ar
     9    10    11   ar
    10    11    12   ar
    11    12    15    1
    12    15    16   ar
    13    16    17   ar
    14    17    18   ar
    15    18    19   ar
    16    19    20   ar
    17    12    13   ar
    18    13    14    1
    19     2    21    1
    20    21    22   ar
    21    22    23   ar
    22    23    24   ar
    23    24    27    1
    24    27    28    1
    25    28    29    1
    26    29    30    1
    27    30    31    1
    28    30    32    1
    29    30    33    1
    30    24    25   ar
    31    25    26   ar
    32    14     5    1
    33    26    21   ar
    34    13     8   ar
    35    20    15   ar
    36     3     4    1
@<TRIPOS>MOLECULE
*****
 33 36 0 0 0
SMALL
GASTEIGER

@<TRIPOS>ATOM
      1 O         141.7205  141.0986  159.4486 O.2     1  UNL1       -0.2701
      2 C         140.8656  139.8684  159.3730 C.2     1  UNL1        0.2474
      3 N         139.5951  139.7881  160.1663 N.am    1  UNL1       -0.2986
      4 H         139.0340  138.9807  160.1167 H       1  UNL1        0.1498
      5 C         139.1796  140.9380  161.0354 C.3     1  UNL1        0.1200
      6 C         138.1552  141.9174  160.5442 C.3     1  UNL1        0.2250
      7 O         137.7397  143.0672  161.4132 O.3     1  UNL1       -0.4740
      8 C         138.3486  143.2376  162.7734 C.ar    1  UNL1        0.1346
      9 C         137.9330  144.3874  163.6425 C.ar    1  UNL1        0.0366
     10 C         138.5419  144.5578  165.0027 C.ar    1  UNL1        0.0031
     11 C         139.5664  143.5784  165.4939 C.ar    1  UNL1       -0.0000
     12 C         139.9819  142.4286  164.6248 C.ar    1  UNL1        0.0020
     13 C         139.3730  142.2582  163.2646 C.ar    1  UNL1        0.0137
     14 C         139.7885  141.1084  162.3956 C.3     1  UNL1        0.0528
     15 C         141.0063  141.4492  165.1160 C.ar    1  UNL1        0.0382
     16 C         142.4619  141.6854  164.8416 C.ar    1  UNL1        0.1022
     17 N         143.4864  140.7059  165.3328 N.ar    1  UNL1       -0.2224
     18 C         143.0551  139.4903  166.0984 C.ar    1  UNL1        0.1989
     19 N         141.5995  139.2540  166.3729 N.ar    1  UNL1       -0.2224
     20 C         140.5751  140.2334  165.8817 C.ar    1  UNL1        0.1022
     21 C         141.2811  138.7186  158.5039 C.ar    1  UNL1        0.0727
     22 C         140.3550  138.2102  157.4392 C.ar    1  UNL1        0.0109
     23 C         140.7706  137.0603  156.5702 C.ar    1  UNL1        0.0579
     24 C         142.1123  136.4189  156.7660 C.ar    1  UNL1        0.2249
     25 N         143.0385  136.9273  157.8307 N.ar    1  UNL1       -0.2100
     26 C         142.6229  138.0771  158.6997 C.ar    1  UNL1        0.1065
     27 O         142.5279  135.2690  155.8969 O.3     1  UNL1       -0.4599
     28 C         142.7565  133.9158  156.5022 C.3     1  UNL1        0.2159
     29 C         143.9999  133.1457  156.1692 C.3     1  UNL1        0.1505
     30 C         144.8595  132.5970  157.2693 C.3     1  UNL1        0.4014
     31 F         145.7190  132.0484  158.3694 F       1  UNL1       -0.1699
     32 F         145.4803  131.6322  156.3031 F       1  UNL1       -0.1699
     33 F         144.2386  133.5618  158.2356 F       1  UNL1       -0.1699
@<TRIPOS>BOND
     1     1     2    2
     2     2     3   am
     3     5     3    1
     4     5     6    1
     5     6     7    1
     6     7     8    1
     7     8     9   ar
     8     9    10   ar
     9    10    11   ar
    10    11    12   ar
    11    12    15    1
    12    15    16   ar
    13    16    17   ar
    14    17    18   ar
    15    18    19   ar
    16    19    20   ar
    17    12    13   ar
    18    13    14    1
    19     2    21    1
    20    21    22   ar
    21    22    23   ar
    22    23    24   ar
    23    24    27    1
    24    27    28    1
    25    28    29    1
    26    29    30    1
    27    30    31    1
    28    30    32    1
    29    30    33    1
    30    24    25   ar
    31    25    26   ar
    32    14     5    1
    33    26    21   ar
    34    13     8   ar
    35    20    15   ar
    36     3     4    1
@<TRIPOS>MOLECULE
*****
 33 36 0 0 0
SMALL
GASTEIGER

@<TRIPOS>ATOM
      1 O         143.9229  139.7428  161.5251 O.2     1  UNL1       -0.2701
      2 C         143.1132  140.1026  160.3147 C.2     1  UNL1        0.2474
      3 N         141.6334  139.8578  160.3024 N.am    1  UNL1       -0.2986
      4 H         141.1020  140.0939  159.5080 H       1  UNL1        0.1498
      5 C         140.9632  139.2531  161.5005 C.3     1  UNL1        0.1200
      6 C         141.0090  137.7694  161.7163 C.3     1  UNL1        0.2250
      7 O         140.3389  137.1648  162.9143 O.3     1  UNL1       -0.4740
      8 C         139.6229  138.0439  163.8965 C.ar    1  UNL1        0.1346
      9 C         138.9527  137.4392  165.0945 C.ar    1  UNL1        0.0366
     10 C         138.2367  138.3182  166.0767 C.ar    1  UNL1        0.0031
     11 C         138.1909  139.8020  165.8608 C.ar    1  UNL1       -0.0000
     12 C         138.8610  140.4066  164.6628 C.ar    1  UNL1        0.0020
     13 C         139.5770  139.5275  163.6806 C.ar    1  UNL1        0.0137
     14 C         140.2472  140.1321  162.4826 C.3     1  UNL1        0.0528
     15 C         138.8152  141.8902  164.4469 C.ar    1  UNL1        0.0382
     16 C         139.8479  142.7729  165.0829 C.ar    1  UNL1        0.1022
     17 N         139.8020  144.2566  164.8670 N.ar    1  UNL1       -0.2224
     18 C         138.7236  144.8576  164.0152 C.ar    1  UNL1        0.1989
     19 N         137.6909  143.9749  163.3792 N.ar    1  UNL1       -0.2224
     20 C         137.7367  142.4913  163.5951 C.ar    1  UNL1        0.1022
     21 C         143.7834  140.7073  159.1167 C.ar    1  UNL1        0.0727
     22 C         143.7141  140.0135  157.7886 C.ar    1  UNL1        0.0109
     23 C         144.3842  140.6181  156.5907 C.ar    1  UNL1        0.0579
     24 C         145.1238  141.9167  156.7207 C.ar    1  UNL1        0.2249
     25 N         145.1931  142.6105  158.0488 N.ar    1  UNL1       -0.2100
     26 C         144.5230  142.0058  159.2468 C.ar    1  UNL1        0.1065
     27 O         145.7940  142.5213  155.5227 O.3     1  UNL1       -0.4599
     28 C         147.2231  142.9686  155.6089 C.3     1  UNL1        0.2159
     29 C         148.1830  142.6288  154.5075 C.3     1  UNL1        0.1505
     30 C         149.3396  141.7124  154.7768 C.3     1  UNL1        0.4014
     31 F         150.4962  140.7961  155.0461 F       1  UNL1       -0.1699
     32 F         149.2161  141.9881  156.2460 F       1  UNL1       -0.1699
     33 F         149.4632  141.4367  153.3076 F       1  UNL1       -0.1699
@<TRIPOS>BOND
     1     1     2    2
     2     2     3   am
     3     5     3    1
     4     5     6    1
     5     6     7    1
     6     7     8    1
     7     8     9   ar
     8     9    10   ar
     9    10    11   ar
    10    11    12   ar
    11    12    15    1
    12    15    16   ar
    13    16    17   ar
    14    17    18   ar
    15    18    19   ar
    16    19    20   ar
    17    12    13   ar
    18    13    14    1
    19     2    21    1
    20    21    22   ar
    21    22    23   ar
    22    23    24   ar
    23    24    27    1
    24    27    28    1
    25    28    29    1
    26    29    30    1
    27    30    31    1
    28    30    32    1
    29    30    33    1
    30    24    25   ar
    31    25    26   ar
    32    14     5    1
    33    26    21   ar
    34    13     8   ar
    35    20    15   ar
    36     3     4    1
@<TRIPOS>MOLECULE
*****
 33 36 0 0 0
SMALL
GASTEIGER

@<TRIPOS>ATOM
      1 O         140.5284  143.3663  158.0912 O.2     1  UNL1       -0.2701
      2 C         139.1894  142.9208  158.5998 C.2     1  UNL1        0.2474
      3 N         138.8713  143.0210  160.0622 N.am    1  UNL1       -0.2986
      4 H         137.9925  142.7286  160.3960 H       1  UNL1        0.1498
      5 C         139.8923  143.5667  161.0161 C.3     1  UNL1        0.1200
      6 C         139.8104  144.9953  161.4660 C.3     1  UNL1        0.2250
      7 O         140.8313  145.5409  162.4199 O.3     1  UNL1       -0.4740
      8 C         141.9342  144.6579  162.9239 C.ar    1  UNL1        0.1346
      9 C         142.9551  145.2036  163.8779 C.ar    1  UNL1        0.0366
     10 C         144.0580  144.3207  164.3819 C.ar    1  UNL1        0.0031
     11 C         144.1399  142.8920  163.9321 C.ar    1  UNL1       -0.0000
     12 C         143.1189  142.3464  162.9782 C.ar    1  UNL1        0.0020
     13 C         142.0161  143.2294  162.4741 C.ar    1  UNL1        0.0137
     14 C         140.9952  142.6838  161.5202 C.3     1  UNL1        0.0528
     15 C         143.2009  140.9178  162.5283 C.ar    1  UNL1        0.0382
     16 C         144.0288  140.5547  161.3314 C.ar    1  UNL1        0.1022
     17 N         144.1107  139.1260  160.8816 N.ar    1  UNL1       -0.2224
     18 C         143.3647  138.0606  161.6287 C.ar    1  UNL1        0.1989
     19 N         142.5368  138.4237  162.8256 N.ar    1  UNL1       -0.2224
     20 C         142.4548  139.8523  163.2754 C.ar    1  UNL1        0.1022
     21 C         138.1685  142.3751  157.6458 C.ar    1  UNL1        0.0727
     22 C         137.6668  143.2257  156.5167 C.ar    1  UNL1        0.0109
     23 C         136.6459  142.6800  155.5629 C.ar    1  UNL1        0.0579
     24 C         136.1267  141.2837  155.7381 C.ar    1  UNL1        0.2249
     25 N         136.6283  140.4331  156.8671 N.ar    1  UNL1       -0.2100
     26 C         137.6492  140.9788  157.8210 C.ar    1  UNL1        0.1065
     27 O         135.1057  140.7380  154.7841 O.3     1  UNL1       -0.4599
     28 C         133.6444  140.9513  155.0467 C.3     1  UNL1        0.2159
     29 C         133.0474  140.5247  156.3550 C.3     1  UNL1        0.1505
     30 C         132.2989  139.2283  156.4506 C.3     1  UNL1        0.4014
     31 F         131.5505  137.9319  156.5462 F       1  UNL1       -0.1699
     32 F         131.0006  139.9792  156.4690 F       1  UNL1       -0.1699
     33 F         133.5972  138.4774  156.4322 F       1  UNL1       -0.1699
@<TRIPOS>BOND
     1     1     2    2
     2     2     3   am
     3     5     3    1
     4     5     6    1
     5     6     7    1
     6     7     8    1
     7     8     9   ar
     8     9    10   ar
     9    10    11   ar
    10    11    12   ar
    11    12    15    1
    12    15    16   ar
    13    16    17   ar
    14    17    18   ar
    15    18    19   ar
    16    19    20   ar
    17    12    13   ar
    18    13    14    1
    19     2    21    1
    20    21    22   ar
    21    22    23   ar
    22    23    24   ar
    23    24    27    1
    24    27    28    1
    25    28    29    1
    26    29    30    1
    27    30    31    1
    28    30    32    1
    29    30    33    1
    30    24    25   ar
    31    25    26   ar
    32    14     5    1
    33    26    21   ar
    34    13     8   ar
    35    20    15   ar
    36     3     4    1
@<TRIPOS>MOLECULE
*****
 33 36 0 0 0
SMALL
GASTEIGER

@<TRIPOS>ATOM
      1 O         142.7718  139.2339  161.5468 O.2     1  UNL1       -0.2701
      2 C         141.4469  138.8604  160.9508 C.2     1  UNL1        0.2474
      3 N         140.2030  138.9274  161.7864 N.am    1  UNL1       -0.2986
      4 H         139.3335  138.6823  161.3952 H       1  UNL1        0.1498
      5 C         140.2840  139.3681  163.2180 C.3     1  UNL1        0.1200
      6 C         140.4836  138.3537  164.3048 C.3     1  UNL1        0.2250
      7 O         140.5645  138.7943  165.7363 O.3     1  UNL1       -0.4740
      8 C         140.4459  140.2493  166.0810 C.ar    1  UNL1        0.1346
      9 C         140.5268  140.6900  167.5126 C.ar    1  UNL1        0.0366
     10 C         140.4082  142.1450  167.8573 C.ar    1  UNL1        0.0031
     11 C         140.2086  143.1594  166.7704 C.ar    1  UNL1       -0.0000
     12 C         140.1277  142.7188  165.3389 C.ar    1  UNL1        0.0020
     13 C         140.2463  141.2637  164.9942 C.ar    1  UNL1        0.0137
     14 C         140.1654  140.8231  163.5627 C.3     1  UNL1        0.0528
     15 C         139.9281  143.7331  164.2521 C.ar    1  UNL1        0.0382
     16 C         138.5643  143.9439  163.6641 C.ar    1  UNL1        0.1022
     17 N         138.3648  144.9583  162.5773 N.ar    1  UNL1       -0.2224
     18 C         139.5290  145.7620  162.0785 C.ar    1  UNL1        0.1989
     19 N         140.8927  145.5512  162.6665 N.ar    1  UNL1       -0.2224
     20 C         141.0923  144.5368  163.7533 C.ar    1  UNL1        0.1022
     21 C         141.3660  138.4198  159.5192 C.ar    1  UNL1        0.0727
     22 C         142.5965  137.9311  158.8142 C.ar    1  UNL1        0.0109
     23 C         142.5155  137.4905  157.3827 C.ar    1  UNL1        0.0579
     24 C         141.2040  137.5386  156.6562 C.ar    1  UNL1        0.2249
     25 N         139.9735  138.0272  157.3613 N.ar    1  UNL1       -0.2100
     26 C         140.0545  138.4678  158.7928 C.ar    1  UNL1        0.1065
     27 O         141.1231  137.0980  155.2246 O.3     1  UNL1       -0.4599
     28 C         141.0696  135.6364  154.8916 C.3     1  UNL1        0.2159
     29 C         142.3245  134.8151  154.9166 C.3     1  UNL1        0.1505
     30 C         142.5910  133.8875  156.0649 C.3     1  UNL1        0.4014
     31 F         142.8575  132.9598  157.2131 F       1  UNL1       -0.1699
     32 F         143.9199  134.5462  156.2886 F       1  UNL1       -0.1699
     33 F         141.2622  133.2287  155.8411 F       1  UNL1       -0.1699
@<TRIPOS>BOND
     1     1     2    2
     2     2     3   am
     3     5     3    1
     4     5     6    1
     5     6     7    1
     6     7     8    1
     7     8     9   ar
     8     9    10   ar
     9    10    11   ar
    10    11    12   ar
    11    12    15    1
    12    15    16   ar
    13    16    17   ar
    14    17    18   ar
    15    18    19   ar
    16    19    20   ar
    17    12    13   ar
    18    13    14    1
    19     2    21    1
    20    21    22   ar
    21    22    23   ar
    22    23    24   ar
    23    24    27    1
    24    27    28    1
    25    28    29    1
    26    29    30    1
    27    30    31    1
    28    30    32    1
    29    30    33    1
    30    24    25   ar
    31    25    26   ar
    32    14     5    1
    33    26    21   ar
    34    13     8   ar
    35    20    15   ar
    36     3     4    1
@<TRIPOS>MOLECULE
*****
 33 36 0 0 0
SMALL
GASTEIGER

@<TRIPOS>ATOM
      1 O         142.2122  138.2105  162.4490 O.2     1  UNL1       -0.2701
      2 C         141.0482  138.5172  161.5541 C.2     1  UNL1        0.2474
      3 N         139.7743  139.0527  162.1375 N.am    1  UNL1       -0.2986
      4 H         139.0103  139.2540  161.5501 H       1  UNL1        0.1498
      5 C         139.6644  139.2814  163.6160 C.3     1  UNL1        0.1200
      6 C         138.9061  138.3098  164.4709 C.3     1  UNL1        0.2250
      7 O         138.7962  138.5386  165.9492 O.3     1  UNL1       -0.4740
      8 C         139.4447  139.7390  166.5726 C.ar    1  UNL1        0.1346
      9 C         139.3348  139.9677  168.0511 C.ar    1  UNL1        0.0366
     10 C         139.9833  141.1681  168.6745 C.ar    1  UNL1        0.0031
     11 C         140.7416  142.1397  167.8195 C.ar    1  UNL1       -0.0000
     12 C         140.8515  141.9109  166.3411 C.ar    1  UNL1        0.0020
     13 C         140.2030  140.7106  165.7177 C.ar    1  UNL1        0.0137
     14 C         140.3129  140.4818  164.2394 C.3     1  UNL1        0.0528
     15 C         141.6098  142.8825  165.4862 C.ar    1  UNL1        0.0382
     16 C         143.1049  142.7978  165.4003 C.ar    1  UNL1        0.1022
     17 N         143.8632  143.7695  164.5453 N.ar    1  UNL1       -0.2224
     18 C         143.1264  144.8257  163.7763 C.ar    1  UNL1        0.1989
     19 N         141.6313  144.9104  163.8622 N.ar    1  UNL1       -0.2224
     20 C         140.8730  143.9388  164.7171 C.ar    1  UNL1        0.1022
     21 C         141.1580  138.2885  160.0757 C.ar    1  UNL1        0.0727
     22 C         142.4891  137.9671  159.4633 C.ar    1  UNL1        0.0109
     23 C         142.5989  137.7384  157.9850 C.ar    1  UNL1        0.0579
     24 C         141.3777  137.8310  157.1190 C.ar    1  UNL1        0.2249
     25 N         140.0466  138.1524  157.7313 N.ar    1  UNL1       -0.2100
     26 C         139.9368  138.3811  159.2096 C.ar    1  UNL1        0.1065
     27 O         141.4876  137.6023  155.6405 O.3     1  UNL1       -0.4599
     28 C         142.7597  137.0619  155.0577 C.3     1  UNL1        0.2159
     29 C         142.9265  135.5842  154.8619 C.3     1  UNL1        0.1505
     30 C         142.7614  134.6502  156.0240 C.3     1  UNL1        0.4014
     31 F         142.5964  133.7162  157.1861 F       1  UNL1       -0.1699
     32 F         141.3616  134.3449  155.5799 F       1  UNL1       -0.1699
     33 F         144.1613  134.9554  156.4681 F       1  UNL1       -0.1699
@<TRIPOS>BOND
     1     1     2    2
     2     2     3   am
     3     5     3    1
     4     5     6    1
     5     6     7    1
     6     7     8    1
     7     8     9   ar
     8     9    10   ar
     9    10    11   ar
    10    11    12   ar
    11    12    15    1
    12    15    16   ar
    13    16    17   ar
    14    17    18   ar
    15    18    19   ar
    16    19    20   ar
    17    12    13   ar
    18    13    14    1
    19     2    21    1
    20    21    22   ar
    21    22    23   ar
    22    23    24   ar
    23    24    27    1
    24    27    28    1
    25    28    29    1
    26    29    30    1
    27    30    31    1
    28    30    32    1
    29    30    33    1
    30    24    25   ar
    31    25    26   ar
    32    14     5    1
    33    26    21   ar
    34    13     8   ar
    35    20    15   ar
    36     3     4    1
@<TRIPOS>MOLECULE
*****
 33 36 0 0 0
SMALL
GASTEIGER

@<TRIPOS>ATOM
      1 O         139.3688  137.8854  161.8569 O.2     1  UNL1       -0.2701
      2 C         139.1470  139.2416  161.2555 C.2     1  UNL1        0.2474
      3 N         139.0843  140.4525  162.1384 N.am    1  UNL1       -0.2986
      4 H         138.9387  141.3425  161.7437 H       1  UNL1        0.1498
      5 C         139.2434  140.3073  163.6230 C.3     1  UNL1        0.1200
      6 C         138.0506  139.9985  164.4784 C.3     1  UNL1        0.2250
      7 O         138.2097  139.8534  165.9628 O.3     1  UNL1       -0.4740
      8 C         139.5616  140.0170  166.5918 C.ar    1  UNL1        0.1346
      9 C         139.7206  139.8719  168.0763 C.ar    1  UNL1        0.0366
     10 C         141.0725  140.0355  168.7053 C.ar    1  UNL1        0.0031
     11 C         142.2654  140.3443  167.8498 C.ar    1  UNL1       -0.0000
     12 C         142.1063  140.4894  166.3653 C.ar    1  UNL1        0.0020
     13 C         140.7544  140.3258  165.7364 C.ar    1  UNL1        0.0137
     14 C         140.5953  140.4709  164.2519 C.3     1  UNL1        0.0528
     15 C         143.2991  140.7982  165.5099 C.ar    1  UNL1        0.0382
     16 C         144.0717  139.6832  164.8697 C.ar    1  UNL1        0.1022
     17 N         145.2646  139.9921  164.0142 N.ar    1  UNL1       -0.2224
     18 C         145.6847  141.4158  163.7989 C.ar    1  UNL1        0.1989
     19 N         144.9121  142.5308  164.4391 N.ar    1  UNL1       -0.2224
     20 C         143.7193  142.2220  165.2946 C.ar    1  UNL1        0.1022
     21 C         138.9880  139.3867  159.7710 C.ar    1  UNL1        0.0727
     22 C         139.9067  138.6492  158.8426 C.ar    1  UNL1        0.0109
     23 C         139.7476  138.7944  157.3581 C.ar    1  UNL1        0.0579
     24 C         138.6698  139.6771  156.8021 C.ar    1  UNL1        0.2249
     25 N         137.7511  140.4146  157.7305 N.ar    1  UNL1       -0.2100
     26 C         137.9102  140.2695  159.2149 C.ar    1  UNL1        0.1065
     27 O         138.5107  139.8223  155.3176 O.3     1  UNL1       -0.4599
     28 C         137.4189  140.6874  154.7613 C.3     1  UNL1        0.2159
     29 C         136.0536  140.1129  154.5254 C.3     1  UNL1        0.1505
     30 C         134.9201  140.4729  155.4397 C.3     1  UNL1        0.4014
     31 F         133.7868  140.8330  156.3539 F       1  UNL1       -0.1699
     32 F         134.4124  139.0635  155.3654 F       1  UNL1       -0.1699
     33 F         135.4279  141.8824  155.5140 F       1  UNL1       -0.1699
@<TRIPOS>BOND
     1     1     2    2
     2     2     3   am
     3     5     3    1
     4     5     6    1
     5     6     7    1
     6     7     8    1
     7     8     9   ar
     8     9    10   ar
     9    10    11   ar
    10    11    12   ar
    11    12    15    1
    12    15    16   ar
    13    16    17   ar
    14    17    18   ar
    15    18    19   ar
    16    19    20   ar
    17    12    13   ar
    18    13    14    1
    19     2    21    1
    20    21    22   ar
    21    22    23   ar
    22    23    24   ar
    23    24    27    1
    24    27    28    1
    25    28    29    1
    26    29    30    1
    27    30    31    1
    28    30    32    1
    29    30    33    1
    30    24    25   ar
    31    25    26   ar
    32    14     5    1
    33    26    21   ar
    34    13     8   ar
    35    20    15   ar
    36     3     4    1
@<TRIPOS>MOLECULE
*****
 33 36 0 0 0
SMALL
GASTEIGER

@<TRIPOS>ATOM
      1 O         140.6014  137.5517  162.1451 O.2     1  UNL1       -0.2701
      2 C         141.5572  138.3831  161.3419 C.2     1  UNL1        0.2474
      3 N         142.4590  139.3644  162.0302 N.am    1  UNL1       -0.2986
      4 H         143.0864  139.9101  161.5031 H       1  UNL1        0.1498
      5 C         142.4050  139.5142  163.5218 C.3     1  UNL1        0.1200
      6 C         143.2825  138.6652  164.3931 C.3     1  UNL1        0.2250
      7 O         143.2285  138.8151  165.8846 O.3     1  UNL1       -0.4740
      8 C         142.2970  139.8140  166.5048 C.ar    1  UNL1        0.1346
      9 C         142.2430  139.9639  167.9963 C.ar    1  UNL1        0.0366
     10 C         141.3116  140.9628  168.6165 C.ar    1  UNL1        0.0031
     11 C         140.4341  141.8118  167.7451 C.ar    1  UNL1       -0.0000
     12 C         140.4881  141.6619  166.2536 C.ar    1  UNL1        0.0020
     13 C         141.4196  140.6630  165.6334 C.ar    1  UNL1        0.0137
     14 C         141.4736  140.5131  164.1420 C.3     1  UNL1        0.0528
     15 C         139.6106  142.5109  165.3823 C.ar    1  UNL1        0.0382
     16 C         139.9795  143.9394  165.1117 C.ar    1  UNL1        0.1022
     17 N         139.1019  144.7884  164.2403 N.ar    1  UNL1       -0.2224
     18 C         137.8557  144.2089  163.6396 C.ar    1  UNL1        0.1989
     19 N         137.4869  142.7803  163.9102 N.ar    1  UNL1       -0.2224
     20 C         138.3643  141.9313  164.7815 C.ar    1  UNL1        0.1022
     21 C         141.6112  138.2332  159.8503 C.ar    1  UNL1        0.0727
     22 C         140.3833  138.4847  159.0264 C.ar    1  UNL1        0.0109
     23 C         140.4373  138.3349  157.5349 C.ar    1  UNL1        0.0579
     24 C         141.7193  137.9335  156.8674 C.ar    1  UNL1        0.2249
     25 N         142.9472  137.6820  157.6913 N.ar    1  UNL1       -0.2100
     26 C         142.8931  137.8319  159.1828 C.ar    1  UNL1        0.1065
     27 O         141.7733  137.7836  155.3758 O.3     1  UNL1       -0.4599
     28 C         141.3862  136.4822  154.7383 C.3     1  UNL1        0.2159
     29 C         141.5235  135.2010  155.5060 C.3     1  UNL1        0.1505
     30 C         142.8632  134.5364  155.6229 C.3     1  UNL1        0.4014
     31 F         144.2029  133.8719  155.7396 F       1  UNL1       -0.1699
     32 F         142.6014  134.2637  157.0744 F       1  UNL1       -0.1699
     33 F         143.1250  134.8091  154.1713 F       1  UNL1       -0.1699
@<TRIPOS>BOND
     1     1     2    2
     2     2     3   am
     3     5     3    1
     4     5     6    1
     5     6     7    1
     6     7     8    1
     7     8     9   ar
     8     9    10   ar
     9    10    11   ar
    10    11    12   ar
    11    12    15    1
    12    15    16   ar
    13    16    17   ar
    14    17    18   ar
    15    18    19   ar
    16    19    20   ar
    17    12    13   ar
    18    13    14    1
    19     2    21    1
    20    21    22   ar
    21    22    23   ar
    22    23    24   ar
    23    24    27    1
    24    27    28    1
    25    28    29    1
    26    29    30    1
    27    30    31    1
    28    30    32    1
    29    30    33    1
    30    24    25   ar
    31    25    26   ar
    32    14     5    1
    33    26    21   ar
    34    13     8   ar
    35    20    15   ar
    36     3     4    1
