@<TRIPOS>MOLECULE
*****
 21 21 0 0 0
SMALL
GASTEIGER

@<TRIPOS>ATOM
      1 C         137.8300  140.4777  163.2184 C.ar    1  UNL1        0.1382
      2 C         138.2695  139.1975  162.5722 C.ar    1  UNL1        0.0369
      3 C         138.8082  138.0788  163.4139 C.ar    1  UNL1        0.0028
      4 C         138.9074  138.2405  164.9018 C.ar    1  UNL1       -0.0040
      5 C         138.4678  139.5208  165.5480 C.ar    1  UNL1       -0.0178
      6 C         137.9291  140.6394  164.7063 C.ar    1  UNL1        0.0327
      7 O         137.2913  141.5964  162.3766 O.3     1  UNL1       -0.4755
      8 C         138.0605  142.8780  162.2511 C.3     1  UNL1        0.2054
      9 C         137.6422  144.0840  163.0389 C.3     1  UNL1        0.0473
     10 C         138.8908  144.8722  165.1767 C.3     1  UNL1        0.0001
     11 C         137.7845  144.0906  164.5322 C.3     1  UNL1        0.0038
     12 C         138.5670  139.6825  167.0360 C.3     1  UNL1        0.0435
     13 C         139.8850  139.4890  167.7253 C.3     1  UNL1        0.0737
     14 N         140.0219  139.8066  169.1849 N.3     1  UNL1       -0.2895
     15 H         140.9971  139.6389  169.4326 H       1  UNL1        0.1237
     16 C         139.6762  141.1760  169.6901 C.3     1  UNL1        0.1552
     17 C         140.6666  141.9432  170.5150 C.2     1  UNL1        0.2419
     18 O         140.4252  142.1444  171.9817 O.2     1  UNL1       -0.2734
     19 N         141.8986  142.5093  169.8731 N.am    1  UNL1       -0.2749
     20 C         142.8890  143.2765  170.6980 C.3     1  UNL1        0.1149
     21 C         142.1401  142.3081  168.4064 C.3     1  UNL1        0.1149
@<TRIPOS>BOND
     1    10    11    1
     2    11     9    1
     3     9     8    1
     4     8     7    1
     5     7     1    1
     6     1     2   ar
     7     2     3   ar
     8     3     4   ar
     9     4     5   ar
    10     5    12    1
    11    12    13    1
    12    13    14    1
    13    14    16    1
    14    16    17    1
    15    17    18    2
    16    17    19   am
    17    19    20    1
    18    19    21    1
    19     5     6   ar
    20     6     1   ar
    21    14    15    1
@<TRIPOS>MOLECULE
*****
 21 21 0 0 0
SMALL
GASTEIGER

@<TRIPOS>ATOM
      1 C         139.1391  139.3274  165.8668 C.ar    1  UNL1        0.1382
      2 C         139.4814  138.0279  165.2005 C.ar    1  UNL1        0.0369
      3 C         139.1086  137.7998  163.7656 C.ar    1  UNL1        0.0028
      4 C         138.3934  138.8712  162.9970 C.ar    1  UNL1       -0.0040
      5 C         138.0511  140.1707  163.6634 C.ar    1  UNL1       -0.0178
      6 C         138.4240  140.3988  165.0983 C.ar    1  UNL1        0.0327
      7 O         139.5120  139.5555  167.3018 O.3     1  UNL1       -0.4755
      8 C         140.6309  140.4933  167.6459 C.3     1  UNL1        0.2054
      9 C         141.9459  140.3859  166.9322 C.3     1  UNL1        0.0473
     10 C         143.2051  138.3578  165.9068 C.3     1  UNL1        0.0001
     11 C         142.7954  139.1618  167.1051 C.3     1  UNL1        0.0038
     12 C         137.3359  141.2421  162.8949 C.3     1  UNL1        0.0435
     13 C         138.1140  142.1998  162.0421 C.3     1  UNL1        0.0737
     14 N         137.7247  143.6477  161.9936 N.3     1  UNL1       -0.2895
     15 H         136.7053  143.6791  162.0081 H       1  UNL1        0.1237
     16 C         138.2021  144.5888  163.0596 C.3     1  UNL1        0.1552
     17 C         139.5696  145.1977  162.9648 C.2     1  UNL1        0.2419
     18 O         139.8313  146.3055  161.9878 O.2     1  UNL1       -0.2734
     19 N         140.6756  144.6989  163.8469 N.am    1  UNL1       -0.2749
     20 C         142.0431  145.3078  163.7521 C.3     1  UNL1        0.1149
     21 C         140.4139  143.5911  164.8238 C.3     1  UNL1        0.1149
@<TRIPOS>BOND
     1    10    11    1
     2    11     9    1
     3     9     8    1
     4     8     7    1
     5     7     1    1
     6     1     2   ar
     7     2     3   ar
     8     3     4   ar
     9     4     5   ar
    10     5    12    1
    11    12    13    1
    12    13    14    1
    13    14    16    1
    14    16    17    1
    15    17    18    2
    16    17    19   am
    17    19    20    1
    18    19    21    1
    19     5     6   ar
    20     6     1   ar
    21    14    15    1
@<TRIPOS>MOLECULE
*****
 21 21 0 0 0
SMALL
GASTEIGER

@<TRIPOS>ATOM
      1 C         137.8071  142.5479  162.9011 C.ar    1  UNL1        0.1382
      2 C         137.7959  142.6254  164.3990 C.ar    1  UNL1        0.0369
      3 C         138.4247  143.7965  165.0942 C.ar    1  UNL1        0.0028
      4 C         139.0645  144.8901  164.2914 C.ar    1  UNL1       -0.0040
      5 C         139.0757  144.8126  162.7935 C.ar    1  UNL1       -0.0178
      6 C         138.4470  143.6415  162.0983 C.ar    1  UNL1        0.0327
      7 O         137.1784  141.3768  162.2059 O.3     1  UNL1       -0.4755
      8 C         138.0428  140.3444  161.5449 C.3     1  UNL1        0.2054
      9 C         137.7818  138.8861  161.7795 C.3     1  UNL1        0.0473
     10 C         139.4330  138.8779  163.7855 C.3     1  UNL1        0.0001
     11 C         138.5934  138.1321  162.7910 C.3     1  UNL1        0.0038
     12 C         139.7156  145.9063  161.9906 C.3     1  UNL1        0.0435
     13 C         140.3177  145.5996  160.6515 C.3     1  UNL1        0.0737
     14 N         141.7664  145.2241  160.5487 N.3     1  UNL1       -0.2895
     15 H         142.2982  145.9828  160.9752 H       1  UNL1        0.1237
     16 C         142.2566  143.9495  161.1693 C.3     1  UNL1        0.1552
     17 C         143.0326  143.9901  162.4523 C.2     1  UNL1        0.2419
     18 O         144.1640  144.9616  162.6142 O.2     1  UNL1       -0.2734
     19 N         142.6771  143.0592  163.5736 N.am    1  UNL1       -0.2749
     20 C         143.4531  143.0998  164.8566 C.3     1  UNL1        0.1149
     21 C         141.5457  142.0878  163.4117 C.3     1  UNL1        0.1149
@<TRIPOS>BOND
     1    10    11    1
     2    11     9    1
     3     9     8    1
     4     8     7    1
     5     7     1    1
     6     1     2   ar
     7     2     3   ar
     8     3     4   ar
     9     4     5   ar
    10     5    12    1
    11    12    13    1
    12    13    14    1
    13    14    16    1
    14    16    17    1
    15    17    18    2
    16    17    19   am
    17    19    20    1
    18    19    21    1
    19     5     6   ar
    20     6     1   ar
    21    14    15    1
@<TRIPOS>MOLECULE
*****
 21 21 0 0 0
SMALL
GASTEIGER

@<TRIPOS>ATOM
      1 C         143.1562  140.4027  165.5310 C.ar    1  UNL1        0.1382
      2 C         144.2444  139.6473  164.8274 C.ar    1  UNL1        0.0369
      3 C         145.2373  140.3814  163.9758 C.ar    1  UNL1        0.0028
      4 C         145.1419  141.8710  163.8277 C.ar    1  UNL1       -0.0040
      5 C         144.0537  142.6265  164.5313 C.ar    1  UNL1       -0.0178
      6 C         143.0609  141.8923  165.3829 C.ar    1  UNL1        0.0327
      7 O         142.1633  139.6686  166.3826 O.3     1  UNL1       -0.4755
      8 C         140.8509  139.2352  165.7999 C.3     1  UNL1        0.2054
      9 C         139.6337  140.0949  165.9713 C.3     1  UNL1        0.0473
     10 C         137.7709  138.5626  166.9367 C.3     1  UNL1        0.0001
     11 C         138.2659  139.4882  165.8652 C.3     1  UNL1        0.0038
     12 C         143.9584  144.1161  164.3832 C.3     1  UNL1        0.0435
     13 C         143.9390  144.7343  163.0167 C.3     1  UNL1        0.0737
     14 N         142.6335  145.1187  162.3858 N.3     1  UNL1       -0.2895
     15 H         142.3425  144.3304  161.8076 H       1  UNL1        0.1237
     16 C         141.4608  145.4790  163.2488 C.3     1  UNL1        0.1552
     17 C         140.0650  145.2249  162.7617 C.2     1  UNL1        0.2419
     18 O         139.6155  145.7885  161.4463 O.2     1  UNL1       -0.2734
     19 N         139.1188  144.4071  163.5900 N.am    1  UNL1       -0.2749
     20 C         137.7230  144.1531  163.1028 C.3     1  UNL1        0.1149
     21 C         139.5683  143.8435  164.9053 C.3     1  UNL1        0.1149
@<TRIPOS>BOND
     1    10    11    1
     2    11     9    1
     3     9     8    1
     4     8     7    1
     5     7     1    1
     6     1     2   ar
     7     2     3   ar
     8     3     4   ar
     9     4     5   ar
    10     5    12    1
    11    12    13    1
    12    13    14    1
    13    14    16    1
    14    16    17    1
    15    17    18    2
    16    17    19   am
    17    19    20    1
    18    19    21    1
    19     5     6   ar
    20     6     1   ar
    21    14    15    1
@<TRIPOS>MOLECULE
*****
 21 21 0 0 0
SMALL
GASTEIGER

@<TRIPOS>ATOM
      1 C         141.8765  140.0893  166.6108 C.ar    1  UNL1        0.1382
      2 C         142.7150  138.9523  166.1068 C.ar    1  UNL1        0.0369
      3 C         142.1330  137.9605  165.1437 C.ar    1  UNL1        0.0028
      4 C         140.7123  138.1056  164.6847 C.ar    1  UNL1       -0.0040
      5 C         139.8738  139.2426  165.1888 C.ar    1  UNL1       -0.0178
      6 C         140.4558  140.2344  166.1518 C.ar    1  UNL1        0.0327
      7 O         142.4585  141.0811  167.5739 O.3     1  UNL1       -0.4755
      8 C         142.6451  140.7071  169.0144 C.3     1  UNL1        0.2054
      9 C         141.8216  139.6075  169.6166 C.3     1  UNL1        0.0473
     10 C         139.6762  141.0691  169.7219 C.3     1  UNL1        0.0001
     11 C         140.4915  139.9197  170.2359 C.3     1  UNL1        0.0038
     12 C         138.4531  139.3877  164.7297 C.3     1  UNL1        0.0435
     13 C         138.1532  140.0433  163.4144 C.3     1  UNL1        0.0737
     14 N         137.0882  141.0961  163.3266 N.3     1  UNL1       -0.2895
     15 H         136.3190  140.7870  163.9208 H       1  UNL1        0.1237
     16 C         137.3975  142.5103  163.7193 C.3     1  UNL1        0.1552
     17 C         138.0450  143.4377  162.7341 C.2     1  UNL1        0.2419
     18 O         137.8885  143.1961  161.2620 O.2     1  UNL1       -0.2734
     19 N         138.8489  144.6068  163.2210 N.am    1  UNL1       -0.2749
     20 C         139.4963  145.5342  162.2357 C.3     1  UNL1        0.1149
     21 C         139.0053  144.8484  164.6931 C.3     1  UNL1        0.1149
@<TRIPOS>BOND
     1    10    11    1
     2    11     9    1
     3     9     8    1
     4     8     7    1
     5     7     1    1
     6     1     2   ar
     7     2     3   ar
     8     3     4   ar
     9     4     5   ar
    10     5    12    1
    11    12    13    1
    12    13    14    1
    13    14    16    1
    14    16    17    1
    15    17    18    2
    16    17    19   am
    17    19    20    1
    18    19    21    1
    19     5     6   ar
    20     6     1   ar
    21    14    15    1
@<TRIPOS>MOLECULE
*****
 21 21 0 0 0
SMALL
GASTEIGER

@<TRIPOS>ATOM
      1 C         143.2803  140.6271  165.5097 C.ar    1  UNL1        0.1382
      2 C         144.3153  139.9143  164.6909 C.ar    1  UNL1        0.0369
      3 C         145.2938  140.7004  163.8695 C.ar    1  UNL1        0.0028
      4 C         145.2373  142.1993  163.8671 C.ar    1  UNL1       -0.0040
      5 C         144.2022  142.9121  164.6859 C.ar    1  UNL1       -0.0178
      6 C         143.2237  142.1260  165.5073 C.ar    1  UNL1        0.0327
      7 O         142.3018  139.8410  166.3311 O.3     1  UNL1       -0.4755
      8 C         142.6789  139.3782  167.7071 C.3     1  UNL1        0.2054
      9 C         142.3480  140.2250  168.9002 C.3     1  UNL1        0.0473
     10 C         142.4373  142.7260  169.5982 C.3     1  UNL1        0.0001
     11 C         143.1395  141.4680  169.1804 C.3     1  UNL1        0.0038
     12 C         144.1457  144.4111  164.6835 C.3     1  UNL1        0.0435
     13 C         143.2618  145.1266  163.7054 C.3     1  UNL1        0.0737
     14 N         143.3010  144.7599  162.2514 N.3     1  UNL1       -0.2895
     15 H         143.9264  143.9586  162.1666 H       1  UNL1        0.1237
     16 C         142.0340  144.3980  161.5348 C.3     1  UNL1        0.1552
     17 C         140.8185  143.9969  162.3167 C.2     1  UNL1        0.2419
     18 O         140.7654  142.6547  162.9845 O.2     1  UNL1       -0.2734
     19 N         139.6559  144.9379  162.4310 N.am    1  UNL1       -0.2749
     20 C         138.4403  144.5368  163.2129 C.3     1  UNL1        0.1149
     21 C         139.7089  146.2800  161.7632 C.3     1  UNL1        0.1149
@<TRIPOS>BOND
     1    10    11    1
     2    11     9    1
     3     9     8    1
     4     8     7    1
     5     7     1    1
     6     1     2   ar
     7     2     3   ar
     8     3     4   ar
     9     4     5   ar
    10     5    12    1
    11    12    13    1
    12    13    14    1
    13    14    16    1
    14    16    17    1
    15    17    18    2
    16    17    19   am
    17    19    20    1
    18    19    21    1
    19     5     6   ar
    20     6     1   ar
    21    14    15    1
@<TRIPOS>MOLECULE
*****
 21 21 0 0 0
SMALL
GASTEIGER

@<TRIPOS>ATOM
      1 C         138.2625  143.8441  162.5876 C.ar    1  UNL1        0.1382
      2 C         138.2517  143.5890  164.0657 C.ar    1  UNL1        0.0369
      3 C         137.9987  142.2051  164.5861 C.ar    1  UNL1        0.0028
      4 C         137.7565  141.0763  163.6285 C.ar    1  UNL1       -0.0040
      5 C         137.7674  141.3314  162.1504 C.ar    1  UNL1       -0.0178
      6 C         138.0203  142.7152  161.6300 C.ar    1  UNL1        0.0327
      7 O         138.5155  145.2279  162.0671 O.3     1  UNL1       -0.4755
      8 C         139.7819  145.9455  162.4291 C.3     1  UNL1        0.2054
      9 C         141.0733  145.1879  162.5205 C.3     1  UNL1        0.0473
     10 C         143.3113  145.0303  163.8308 C.3     1  UNL1        0.0001
     11 C         141.8142  145.1229  163.8232 C.3     1  UNL1        0.0038
     12 C         137.5252  140.2025  161.1927 C.3     1  UNL1        0.0435
     13 C         138.5724  139.1463  160.9981 C.3     1  UNL1        0.0737
     14 N         138.4143  137.8044  161.6495 N.3     1  UNL1       -0.2895
     15 H         138.9640  137.1438  161.1001 H       1  UNL1        0.1237
     16 C         138.8148  137.6144  163.0825 C.3     1  UNL1        0.1552
     17 C         140.2661  137.6093  163.4612 C.2     1  UNL1        0.2419
     18 O         141.2837  137.0289  162.5244 O.2     1  UNL1       -0.2734
     19 N         140.7000  138.1848  164.7768 N.am    1  UNL1       -0.2749
     20 C         142.1514  138.1797  165.1555 C.3     1  UNL1        0.1149
     21 C         139.6824  138.7653  165.7136 C.3     1  UNL1        0.1149
@<TRIPOS>BOND
     1    10    11    1
     2    11     9    1
     3     9     8    1
     4     8     7    1
     5     7     1    1
     6     1     2   ar
     7     2     3   ar
     8     3     4   ar
     9     4     5   ar
    10     5    12    1
    11    12    13    1
    12    13    14    1
    13    14    16    1
    14    16    17    1
    15    17    18    2
    16    17    19   am
    17    19    20    1
    18    19    21    1
    19     5     6   ar
    20     6     1   ar
    21    14    15    1
@<TRIPOS>MOLECULE
*****
 21 21 0 0 0
SMALL
GASTEIGER

@<TRIPOS>ATOM
      1 C         141.9363  137.9091  163.5717 C.ar    1  UNL1        0.1382
      2 C         142.2726  137.8495  165.0322 C.ar    1  UNL1        0.0369
      3 C         143.4118  138.6617  165.5732 C.ar    1  UNL1        0.0028
      4 C         144.2147  139.5333  164.6537 C.ar    1  UNL1       -0.0040
      5 C         143.8783  139.5928  163.1931 C.ar    1  UNL1       -0.0178
      6 C         142.7392  138.7807  162.6521 C.ar    1  UNL1        0.0327
      7 O         140.7971  137.0969  163.0306 O.3     1  UNL1       -0.4755
      8 C         139.3864  137.5774  163.2006 C.3     1  UNL1        0.2054
      9 C         138.7443  137.5543  164.5560 C.3     1  UNL1        0.0473
     10 C         137.9923  138.8007  166.7080 C.3     1  UNL1        0.0001
     11 C         138.5531  138.8327  165.3172 C.3     1  UNL1        0.0038
     12 C         144.6812  140.4645  162.2735 C.3     1  UNL1        0.0435
     13 C         145.2962  141.7320  162.7885 C.3     1  UNL1        0.0737
     14 N         145.1173  143.0142  162.0308 N.3     1  UNL1       -0.2895
     15 H         144.7606  142.7640  161.1085 H       1  UNL1        0.1237
     16 C         144.2137  144.0836  162.5690 C.3     1  UNL1        0.1552
     17 C         142.7559  144.0816  162.2156 C.2     1  UNL1        0.2419
     18 O         142.3007  144.6565  160.9070 O.2     1  UNL1       -0.2734
     19 N         141.7534  143.5047  163.1706 N.am    1  UNL1       -0.2749
     20 C         140.2956  143.5027  162.8172 C.3     1  UNL1        0.1149
     21 C         142.2086  142.9298  164.4792 C.3     1  UNL1        0.1149
@<TRIPOS>BOND
     1    10    11    1
     2    11     9    1
     3     9     8    1
     4     8     7    1
     5     7     1    1
     6     1     2   ar
     7     2     3   ar
     8     3     4   ar
     9     4     5   ar
    10     5    12    1
    11    12    13    1
    12    13    14    1
    13    14    16    1
    14    16    17    1
    15    17    18    2
    16    17    19   am
    17    19    20    1
    18    19    21    1
    19     5     6   ar
    20     6     1   ar
    21    14    15    1
@<TRIPOS>MOLECULE
*****
 21 21 0 0 0
SMALL
GASTEIGER

@<TRIPOS>ATOM
      1 C         140.8972  141.4071  166.2286 C.ar    1  UNL1        0.1382
      2 C         139.7915  140.4262  165.9733 C.ar    1  UNL1        0.0369
      3 C         138.5576  140.8611  165.2395 C.ar    1  UNL1        0.0028
      4 C         138.4294  142.2769  164.7612 C.ar    1  UNL1       -0.0040
      5 C         139.5350  143.2579  165.0165 C.ar    1  UNL1       -0.0178
      6 C         140.7689  142.8230  165.7503 C.ar    1  UNL1        0.0327
      7 O         142.1311  140.9723  166.9624 O.3     1  UNL1       -0.4755
      8 C         142.3453  139.5210  167.2752 C.3     1  UNL1        0.2054
      9 C         143.2463  138.6920  166.4087 C.3     1  UNL1        0.0473
     10 C         143.0114  139.3123  163.8966 C.3     1  UNL1        0.0001
     11 C         143.8269  139.2764  165.1551 C.3     1  UNL1        0.0038
     12 C         139.4067  144.6738  164.5382 C.3     1  UNL1        0.0435
     13 C         139.9925  145.0750  163.2169 C.3     1  UNL1        0.0737
     14 N         141.2689  145.8617  163.1702 N.3     1  UNL1       -0.2895
     15 H         141.0927  146.7382  163.6612 H       1  UNL1        0.1237
     16 C         142.5266  145.2857  163.7502 C.3     1  UNL1        0.1552
     17 C         143.3262  144.2884  162.9654 C.2     1  UNL1        0.2419
     18 O         143.1911  144.2267  161.4728 O.2     1  UNL1       -0.2734
     19 N         144.2610  143.3528  163.6732 N.am    1  UNL1       -0.2749
     20 C         145.0606  142.3555  162.8884 C.3     1  UNL1        0.1149
     21 C         144.3961  143.4146  165.1658 C.3     1  UNL1        0.1149
@<TRIPOS>BOND
     1    10    11    1
     2    11     9    1
     3     9     8    1
     4     8     7    1
     5     7     1    1
     6     1     2   ar
     7     2     3   ar
     8     3     4   ar
     9     4     5   ar
    10     5    12    1
    11    12    13    1
    12    13    14    1
    13    14    16    1
    14    16    17    1
    15    17    18    2
    16    17    19   am
    17    19    20    1
    18    19    21    1
    19     5     6   ar
    20     6     1   ar
    21    14    15    1
