@<TRIPOS>MOLECULE
*****
 38 41 0 0 0
SMALL
GASTEIGER

@<TRIPOS>ATOM
      1 C         141.3464  141.6474  169.2228 C.ar    1  UNL1        0.1689
      2 N         140.5799  140.7302  170.1291 N.ar    1  UNL1       -0.1421
      3 N         139.5182  139.8334  169.5648 N.ar    1  UNL1       -0.1478
      4 C         139.2229  139.8537  168.0942 C.ar    1  UNL1        0.1041
      5 C         138.1612  138.9569  167.5300 C.ar    1  UNL1        0.0209
      6 C         137.8660  138.9773  166.0595 C.ar    1  UNL1        0.0017
      7 C         138.6325  139.8944  165.1533 C.ar    1  UNL1        0.0016
      8 C         139.6942  140.7912  165.7175 C.ar    1  UNL1        0.0029
      9 C         139.9894  140.7709  167.1880 C.ar    1  UNL1        0.0342
     10 C         141.0512  141.6677  167.7523 C.ar    1  UNL1        0.0702
     11 C         138.3373  139.9147  163.6827 C.ar    1  UNL1        0.0194
     12 C         137.9904  141.2072  163.0052 C.ar    1  UNL1        0.0063
     13 C         137.6951  141.2275  161.5346 C.ar    1  UNL1        0.0577
     14 C         137.7468  139.9553  160.7416 C.ar    1  UNL1        0.2249
     15 N         138.0937  138.6627  161.4193 N.ar    1  UNL1       -0.2101
     16 C         138.3889  138.6425  162.8897 C.ar    1  UNL1        0.1020
     17 O         137.4516  139.9755  159.2711 O.3     1  UNL1       -0.4602
     18 C         138.5389  140.3066  158.2924 C.3     1  UNL1        0.2085
     19 C         139.9246  139.7713  158.5013 C.3     1  UNL1        0.0647
     20 C         140.8910  140.5128  159.3766 C.3     1  UNL1        0.0760
     21 N         141.3617  139.8991  160.6618 N.3     1  UNL1       -0.2702
     22 C         141.6491  138.4284  160.7297 C.3     1  UNL1        0.0897
     23 C         141.5451  140.7561  161.8792 C.3     1  UNL1        0.0897
     24 C         144.9173  143.0788  170.1975 C.3     1  UNL1        0.1110
     25 N         143.8556  142.1819  169.6332 N.am    1  UNL1       -0.2978
     26 C         142.4082  142.5442  169.7871 C.2     1  UNL1        0.2666
     27 O         142.0225  143.8033  170.5054 O.2     1  UNL1       -0.2684
     28 H         144.1087  141.3555  169.1618 H       1  UNL1        0.1498
     29 N         141.8177  142.5849  166.8461 N.pl3   1  UNL1       -0.3327
     30 H         141.6804  143.5582  166.9002 H       1  UNL1        0.1468
     31 C         142.7936  142.0189  165.8574 C.3     1  UNL1        0.0692
     32 C         143.4208  140.6791  166.1054 C.3     1  UNL1        0.0212
     33 C         143.1422  142.7928  164.6206 C.3     1  UNL1        0.0229
     34 C         142.3168  143.9798  164.2210 C.3     1  UNL1        0.0338
     35 C         142.6654  144.7537  162.9843 C.3     1  UNL1        0.1422
     36 O         143.8395  144.3407  162.1472 O.3     1  UNL1       -0.3538
     37 C         144.6651  143.1537  162.5468 C.3     1  UNL1        0.1422
     38 C         144.3164  142.3798  163.7835 C.3     1  UNL1        0.0338
@<TRIPOS>BOND
     1    24    25    1
     2    25    26   am
     3    26    27    2
     4    26     1    1
     5     1     2   ar
     6     2     3   ar
     7     3     4   ar
     8     4     5   ar
     9     5     6   ar
    10     6     7   ar
    11     7    11    1
    12    11    12   ar
    13    12    13   ar
    14    13    14   ar
    15    14    17    1
    16    17    18    1
    17    18    19    1
    18    19    20    1
    19    20    21    1
    20    21    22    1
    21    21    23    1
    22    14    15   ar
    23    15    16   ar
    24     7     8   ar
    25     8     9   ar
    26     9    10   ar
    27    10    29    1
    28    29    31    1
    29    31    32    1
    30    31    33    1
    31    33    34    1
    32    34    35    1
    33    35    36    1
    34    36    37    1
    35    37    38    1
    36    10     1   ar
    37    38    33    1
    38     9     4   ar
    39    16    11   ar
    40    25    28    1
    41    29    30    1
@<TRIPOS>MOLECULE
*****
 38 41 0 0 0
SMALL
GASTEIGER

@<TRIPOS>ATOM
      1 C         141.2469  141.6868  169.2122 C.ar    1  UNL1        0.1689
      2 N         140.5163  140.7518  170.1297 N.ar    1  UNL1       -0.1421
      3 N         139.4730  139.8246  169.5803 N.ar    1  UNL1       -0.1478
      4 C         139.1604  139.8324  168.1132 C.ar    1  UNL1        0.1041
      5 C         138.1172  138.9052  167.5637 C.ar    1  UNL1        0.0209
      6 C         137.8046  138.9130  166.0967 C.ar    1  UNL1        0.0017
      7 C         138.5352  139.8480  165.1792 C.ar    1  UNL1        0.0016
      8 C         139.5785  140.7752  165.7286 C.ar    1  UNL1        0.0029
      9 C         139.8911  140.7674  167.1956 C.ar    1  UNL1        0.0342
     10 C         140.9344  141.6946  167.7452 C.ar    1  UNL1        0.0702
     11 C         138.2226  139.8558  163.7121 C.ar    1  UNL1        0.0194
     12 C         138.4288  138.6151  162.8947 C.ar    1  UNL1        0.0063
     13 C         138.1162  138.6229  161.4276 C.ar    1  UNL1        0.0577
     14 C         137.5974  139.8714  160.7780 C.ar    1  UNL1        0.2249
     15 N         137.3911  141.1122  161.5954 N.ar    1  UNL1       -0.2101
     16 C         137.7038  141.1043  163.0624 C.ar    1  UNL1        0.1020
     17 O         137.2847  139.8793  159.3110 O.3     1  UNL1       -0.4602
     18 C         137.8747  140.9353  158.4241 C.3     1  UNL1        0.2085
     19 C         137.5922  140.9213  156.9509 C.3     1  UNL1        0.0647
     20 C         136.1804  141.0339  156.4569 C.3     1  UNL1        0.0760
     21 N         135.6126  139.9734  155.5609 N.3     1  UNL1       -0.2702
     22 C         134.1621  139.6045  155.6611 C.3     1  UNL1        0.0897
     23 C         136.4952  139.2817  154.5646 C.3     1  UNL1        0.0897
     24 C         144.7848  143.1721  170.2258 C.3     1  UNL1        0.1110
     25 N         143.7416  142.2449  169.6763 N.am    1  UNL1       -0.2978
     26 C         142.2902  142.6140  169.7617 C.2     1  UNL1        0.2666
     27 O         141.8821  143.9103  170.3966 O.2     1  UNL1       -0.2684
     28 H         144.0094  141.3941  169.2596 H       1  UNL1        0.1498
     29 N         141.6650  142.6296  166.8276 N.pl3   1  UNL1       -0.3327
     30 H         141.3278  143.5436  166.6857 H       1  UNL1        0.1468
     31 C         142.9095  142.1720  166.1262 C.3     1  UNL1        0.0692
     32 C         144.1506  143.0129  166.1757 C.3     1  UNL1        0.0212
     33 C         142.9128  140.8734  165.3754 C.3     1  UNL1        0.0229
     34 C         143.1476  139.5849  166.1065 C.3     1  UNL1        0.0338
     35 C         143.1509  138.2864  165.3556 C.3     1  UNL1        0.1422
     36 O         142.9194  138.2764  163.8736 O.3     1  UNL1       -0.3538
     37 C         142.6846  139.5649  163.1424 C.3     1  UNL1        0.1422
     38 C         142.6813  140.8635  163.8933 C.3     1  UNL1        0.0338
@<TRIPOS>BOND
     1    24    25    1
     2    25    26   am
     3    26    27    2
     4    26     1    1
     5     1     2   ar
     6     2     3   ar
     7     3     4   ar
     8     4     5   ar
     9     5     6   ar
    10     6     7   ar
    11     7    11    1
    12    11    12   ar
    13    12    13   ar
    14    13    14   ar
    15    14    17    1
    16    17    18    1
    17    18    19    1
    18    19    20    1
    19    20    21    1
    20    21    22    1
    21    21    23    1
    22    14    15   ar
    23    15    16   ar
    24     7     8   ar
    25     8     9   ar
    26     9    10   ar
    27    10    29    1
    28    29    31    1
    29    31    32    1
    30    31    33    1
    31    33    34    1
    32    34    35    1
    33    35    36    1
    34    36    37    1
    35    37    38    1
    36    10     1   ar
    37    38    33    1
    38     9     4   ar
    39    16    11   ar
    40    25    28    1
    41    29    30    1
@<TRIPOS>MOLECULE
*****
 38 41 0 0 0
SMALL
GASTEIGER

@<TRIPOS>ATOM
      1 C         141.3161  141.6298  169.2121 C.ar    1  UNL1        0.1689
      2 N         140.5512  140.7205  170.1276 N.ar    1  UNL1       -0.1421
      3 N         139.4792  139.8287  169.5749 N.ar    1  UNL1       -0.1478
      4 C         139.1722  139.8460  168.1067 C.ar    1  UNL1        0.1041
      5 C         138.1003  138.9542  167.5540 C.ar    1  UNL1        0.0209
      6 C         137.7933  138.9716  166.0859 C.ar    1  UNL1        0.0017
      7 C         138.5583  139.8809  165.1705 C.ar    1  UNL1        0.0016
      8 C         139.6302  140.7727  165.7231 C.ar    1  UNL1        0.0029
      9 C         139.9372  140.7553  167.1913 C.ar    1  UNL1        0.0342
     10 C         141.0092  141.6472  167.7440 C.ar    1  UNL1        0.0702
     11 C         138.2513  139.8982  163.7023 C.ar    1  UNL1        0.0194
     12 C         138.4587  138.6623  162.8780 C.ar    1  UNL1        0.0063
     13 C         138.1516  138.6797  161.4098 C.ar    1  UNL1        0.0577
     14 C         137.6373  139.9330  160.7660 C.ar    1  UNL1        0.2249
     15 N         137.4299  141.1690  161.5903 N.ar    1  UNL1       -0.2101
     16 C         137.7369  141.1516  163.0584 C.ar    1  UNL1        0.1020
     17 O         137.3303  139.9504  159.2978 O.3     1  UNL1       -0.4602
     18 C         138.2372  140.6785  158.3506 C.3     1  UNL1        0.2085
     19 C         137.7689  141.0012  156.9626 C.3     1  UNL1        0.0647
     20 C         136.3078  140.9355  156.6297 C.3     1  UNL1        0.0760
     21 N         135.8641  140.3878  155.3057 N.3     1  UNL1       -0.2702
     22 C         134.5375  139.6978  155.1860 C.3     1  UNL1        0.0897
     23 C         136.7469  140.5300  154.1014 C.3     1  UNL1        0.0897
     24 C         144.9016  143.0172  170.1967 C.3     1  UNL1        0.1110
     25 N         143.8297  142.1253  169.6440 N.am    1  UNL1       -0.2978
     26 C         142.3881  142.5217  169.7649 C.2     1  UNL1        0.2666
     27 O         142.0184  143.8099  170.4385 O.2     1  UNL1       -0.2684
     28 H         144.0724  141.2798  169.2019 H       1  UNL1        0.1498
     29 N         141.7742  142.5565  166.8286 N.pl3   1  UNL1       -0.3327
     30 H         141.6136  143.5275  166.8523 H       1  UNL1        0.1468
     31 C         142.7838  141.9862  165.8770 C.3     1  UNL1        0.0692
     32 C         143.3563  140.6213  166.1201 C.3     1  UNL1        0.0212
     33 C         143.2209  142.7810  164.6823 C.3     1  UNL1        0.0229
     34 C         144.2656  142.2310  163.7570 C.3     1  UNL1        0.0338
     35 C         144.7027  143.0258  162.5623 C.3     1  UNL1        0.1422
     36 O         144.0952  144.3705  162.2929 O.3     1  UNL1       -0.3538
     37 C         143.0505  144.9205  163.2182 C.3     1  UNL1        0.1422
     38 C         142.6133  144.1257  164.4129 C.3     1  UNL1        0.0338
@<TRIPOS>BOND
     1    24    25    1
     2    25    26   am
     3    26    27    2
     4    26     1    1
     5     1     2   ar
     6     2     3   ar
     7     3     4   ar
     8     4     5   ar
     9     5     6   ar
    10     6     7   ar
    11     7    11    1
    12    11    12   ar
    13    12    13   ar
    14    13    14   ar
    15    14    17    1
    16    17    18    1
    17    18    19    1
    18    19    20    1
    19    20    21    1
    20    21    22    1
    21    21    23    1
    22    14    15   ar
    23    15    16   ar
    24     7     8   ar
    25     8     9   ar
    26     9    10   ar
    27    10    29    1
    28    29    31    1
    29    31    32    1
    30    31    33    1
    31    33    34    1
    32    34    35    1
    33    35    36    1
    34    36    37    1
    35    37    38    1
    36    10     1   ar
    37    38    33    1
    38     9     4   ar
    39    16    11   ar
    40    25    28    1
    41    29    30    1
@<TRIPOS>MOLECULE
*****
 38 41 0 0 0
SMALL
GASTEIGER

@<TRIPOS>ATOM
      1 C         140.2569  141.7463  168.9128 C.ar    1  UNL1        0.1689
      2 N         139.5385  140.6910  169.7003 N.ar    1  UNL1       -0.1421
      3 N         138.8192  139.5836  168.9888 N.ar    1  UNL1       -0.1478
      4 C         138.8184  139.5315  167.4896 C.ar    1  UNL1        0.1041
      5 C         138.0991  138.4241  166.7781 C.ar    1  UNL1        0.0209
      6 C         138.0983  138.3720  165.2791 C.ar    1  UNL1        0.0017
      7 C         138.8167  139.4273  164.4915 C.ar    1  UNL1        0.0016
      8 C         139.5360  140.5346  165.2030 C.ar    1  UNL1        0.0029
      9 C         139.5368  140.5867  166.7021 C.ar    1  UNL1        0.0342
     10 C         140.2561  141.6942  167.4137 C.ar    1  UNL1        0.0702
     11 C         138.8158  139.3751  162.9924 C.ar    1  UNL1        0.0194
     12 C         137.8485  140.2160  162.2132 C.ar    1  UNL1        0.0063
     13 C         137.8476  140.1638  160.7141 C.ar    1  UNL1        0.0577
     14 C         138.8142  139.2708  159.9942 C.ar    1  UNL1        0.2249
     15 N         139.7816  138.4299  160.7734 N.ar    1  UNL1       -0.2101
     16 C         139.7824  138.4821  162.2724 C.ar    1  UNL1        0.1020
     17 O         138.8133  139.2187  158.4951 O.3     1  UNL1       -0.4602
     18 C         139.6358  140.1971  157.7102 C.3     1  UNL1        0.2085
     19 C         140.7255  140.9742  158.3875 C.3     1  UNL1        0.0647
     20 C         140.4372  142.3331  158.9534 C.3     1  UNL1        0.0760
     21 N         140.4359  142.5421  160.4387 N.3     1  UNL1       -0.2702
     22 C         141.3756  141.7592  161.3071 C.3     1  UNL1        0.0897
     23 C         139.4950  143.5340  161.0557 C.3     1  UNL1        0.0897
     24 C         143.0732  143.7309  170.8824 C.3     1  UNL1        0.1110
     25 N         142.3540  142.6235  170.1708 N.am    1  UNL1       -0.2978
     26 C         140.9762  142.8537  169.6244 C.2     1  UNL1        0.2666
     27 O         140.3176  144.1912  169.7895 O.2     1  UNL1       -0.2684
     28 H         142.7863  141.7457  170.0625 H       1  UNL1        0.1498
     29 N         140.9745  142.7495  166.6262 N.pl3   1  UNL1       -0.3327
     30 H         140.5804  143.6466  166.5311 H       1  UNL1        0.1468
     31 C         142.2936  142.4378  165.9834 C.3     1  UNL1        0.0692
     32 C         143.1903  141.3936  166.5795 C.3     1  UNL1        0.0212
     33 C         142.7158  143.1705  164.7445 C.3     1  UNL1        0.0229
     34 C         141.8629  144.2780  164.2007 C.3     1  UNL1        0.0338
     35 C         142.2851  145.0107  162.9618 C.3     1  UNL1        0.1422
     36 O         143.5604  144.6359  162.2667 O.3     1  UNL1       -0.3538
     37 C         144.4134  143.5283  162.8105 C.3     1  UNL1        0.1422
     38 C         143.9912  142.7956  164.0494 C.3     1  UNL1        0.0338
@<TRIPOS>BOND
     1    24    25    1
     2    25    26   am
     3    26    27    2
     4    26     1    1
     5     1     2   ar
     6     2     3   ar
     7     3     4   ar
     8     4     5   ar
     9     5     6   ar
    10     6     7   ar
    11     7    11    1
    12    11    12   ar
    13    12    13   ar
    14    13    14   ar
    15    14    17    1
    16    17    18    1
    17    18    19    1
    18    19    20    1
    19    20    21    1
    20    21    22    1
    21    21    23    1
    22    14    15   ar
    23    15    16   ar
    24     7     8   ar
    25     8     9   ar
    26     9    10   ar
    27    10    29    1
    28    29    31    1
    29    31    32    1
    30    31    33    1
    31    33    34    1
    32    34    35    1
    33    35    36    1
    34    36    37    1
    35    37    38    1
    36    10     1   ar
    37    38    33    1
    38     9     4   ar
    39    16    11   ar
    40    25    28    1
    41    29    30    1
@<TRIPOS>MOLECULE
*****
 38 41 0 0 0
SMALL
GASTEIGER

@<TRIPOS>ATOM
      1 C         140.0266  140.4570  168.0513 C.ar    1  UNL1        0.1689
      2 N         138.8064  139.6285  168.3246 N.ar    1  UNL1       -0.1421
      3 N         138.2873  138.6894  167.2764 N.ar    1  UNL1       -0.1478
      4 C         138.9884  138.5788  165.9549 C.ar    1  UNL1        0.1041
      5 C         138.4693  137.6397  164.9068 C.ar    1  UNL1        0.0209
      6 C         139.1704  137.5292  163.5854 C.ar    1  UNL1        0.0017
      7 C         140.3906  138.3577  163.3121 C.ar    1  UNL1        0.0016
      8 C         140.9097  139.2968  164.3602 C.ar    1  UNL1        0.0029
      9 C         140.2086  139.4073  165.6816 C.ar    1  UNL1        0.0342
     10 C         140.7277  140.3464  166.7299 C.ar    1  UNL1        0.0702
     11 C         141.0917  138.2471  161.9906 C.ar    1  UNL1        0.0194
     12 C         140.3628  138.5861  160.7242 C.ar    1  UNL1        0.0063
     13 C         141.0639  138.4755  159.4027 C.ar    1  UNL1        0.0577
     14 C         142.4939  138.0259  159.3477 C.ar    1  UNL1        0.2249
     15 N         143.2228  137.6869  160.6142 N.ar    1  UNL1       -0.2101
     16 C         142.5217  137.7975  161.9356 C.ar    1  UNL1        0.1020
     17 O         143.1950  137.9152  158.0263 O.3     1  UNL1       -0.4602
     18 C         142.6652  136.9899  156.9713 C.3     1  UNL1        0.2085
     19 C         143.4755  135.8042  156.5380 C.3     1  UNL1        0.0647
     20 C         143.3168  134.4895  157.2425 C.3     1  UNL1        0.0760
     21 N         142.6266  133.3488  156.5551 N.3     1  UNL1       -0.2702
     22 C         141.6022  133.6219  155.4939 C.3     1  UNL1        0.0897
     23 C         142.9607  131.9351  156.9289 C.3     1  UNL1        0.0897
     24 C         141.6243  141.7932  171.4294 C.3     1  UNL1        0.1110
     25 N         141.1052  140.8541  170.3813 N.am    1  UNL1       -0.2978
     26 C         140.5457  141.3961  169.0995 C.2     1  UNL1        0.2666
     27 O         140.5053  142.8772  168.8658 O.2     1  UNL1       -0.2684
     28 H         141.1318  139.8820  170.5347 H       1  UNL1        0.1498
     29 N         141.9479  141.1749  166.4566 N.pl3   1  UNL1       -0.3327
     30 H         142.7870  140.9887  166.9366 H       1  UNL1        0.1468
     31 C         141.8896  142.2873  165.4519 C.3     1  UNL1        0.0692
     32 C         140.7272  143.2354  165.4493 C.3     1  UNL1        0.0212
     33 C         142.9936  142.4515  164.4498 C.3     1  UNL1        0.0229
     34 C         142.9905  143.6254  163.5160 C.3     1  UNL1        0.0338
     35 C         144.0946  143.7896  162.5140 C.3     1  UNL1        0.1422
     36 O         145.2018  142.7799  162.4458 O.3     1  UNL1       -0.3538
     37 C         145.2049  141.6060  163.3796 C.3     1  UNL1        0.1422
     38 C         144.1009  141.4418  164.3816 C.3     1  UNL1        0.0338
@<TRIPOS>BOND
     1    24    25    1
     2    25    26   am
     3    26    27    2
     4    26     1    1
     5     1     2   ar
     6     2     3   ar
     7     3     4   ar
     8     4     5   ar
     9     5     6   ar
    10     6     7   ar
    11     7    11    1
    12    11    12   ar
    13    12    13   ar
    14    13    14   ar
    15    14    17    1
    16    17    18    1
    17    18    19    1
    18    19    20    1
    19    20    21    1
    20    21    22    1
    21    21    23    1
    22    14    15   ar
    23    15    16   ar
    24     7     8   ar
    25     8     9   ar
    26     9    10   ar
    27    10    29    1
    28    29    31    1
    29    31    32    1
    30    31    33    1
    31    33    34    1
    32    34    35    1
    33    35    36    1
    34    36    37    1
    35    37    38    1
    36    10     1   ar
    37    38    33    1
    38     9     4   ar
    39    16    11   ar
    40    25    28    1
    41    29    30    1
@<TRIPOS>MOLECULE
*****
 38 41 0 0 0
SMALL
GASTEIGER

@<TRIPOS>ATOM
      1 C         140.7869  144.1383  159.2937 C.ar    1  UNL1        0.1689
      2 N         140.0053  145.3722  159.6352 N.ar    1  UNL1       -0.1421
      3 N         139.6657  145.6731  161.0649 N.ar    1  UNL1       -0.1478
      4 C         140.1078  144.7401  162.1532 C.ar    1  UNL1        0.1041
      5 C         139.7682  145.0411  163.5829 C.ar    1  UNL1        0.0209
      6 C         140.2103  144.1082  164.6711 C.ar    1  UNL1        0.0017
      7 C         140.9919  142.8743  164.3296 C.ar    1  UNL1        0.0016
      8 C         141.3314  142.5733  162.8999 C.ar    1  UNL1        0.0029
      9 C         140.8894  143.5063  161.8117 C.ar    1  UNL1        0.0342
     10 C         141.2290  143.2053  160.3819 C.ar    1  UNL1        0.0702
     11 C         141.4339  141.9413  165.4178 C.ar    1  UNL1        0.0194
     12 C         142.5309  142.3495  166.3560 C.ar    1  UNL1        0.0063
     13 C         142.9729  141.4165  167.4442 C.ar    1  UNL1        0.0577
     14 C         142.3180  140.0754  167.5943 C.ar    1  UNL1        0.2249
     15 N         141.2210  139.6673  166.6561 N.ar    1  UNL1       -0.2101
     16 C         140.7790  140.6002  165.5679 C.ar    1  UNL1        0.1020
     17 O         142.7600  139.1425  168.6825 O.3     1  UNL1       -0.4602
     18 C         142.3245  139.3814  170.0979 C.3     1  UNL1        0.2085
     19 C         141.0502  140.1223  170.3757 C.3     1  UNL1        0.0647
     20 C         141.0780  141.3853  171.1844 C.3     1  UNL1        0.0760
     21 N         141.4920  142.6769  170.5441 N.3     1  UNL1       -0.2702
     22 C         140.4841  143.5024  169.8005 C.3     1  UNL1        0.0897
     23 C         142.9140  143.1432  170.6472 C.3     1  UNL1        0.0897
     24 C         142.4210  144.4203  155.6881 C.3     1  UNL1        0.1110
     25 N         142.0815  144.7212  157.1178 N.am    1  UNL1       -0.2978
     26 C         141.1265  143.8374  157.8639 C.2     1  UNL1        0.2666
     27 O         140.5110  142.6525  157.1803 O.2     1  UNL1       -0.2684
     28 H         142.4854  145.4989  157.5665 H       1  UNL1        0.1498
     29 N         142.0106  141.9715  160.0404 N.pl3   1  UNL1       -0.3327
     30 H         141.5443  141.1676  159.7153 H       1  UNL1        0.1468
     31 C         143.5027  141.9624  160.1941 C.3     1  UNL1        0.0692
     32 C         144.3734  142.4907  159.0929 C.3     1  UNL1        0.0212
     33 C         144.1241  141.4249  161.4491 C.3     1  UNL1        0.0229
     34 C         145.0801  142.2724  162.2351 C.3     1  UNL1        0.0338
     35 C         145.7015  141.7349  163.4901 C.3     1  UNL1        0.1422
     36 O         145.3668  140.3501  163.9591 O.3     1  UNL1       -0.3538
     37 C         144.4107  139.5025  163.1732 C.3     1  UNL1        0.1422
     38 C         143.7894  140.0400  161.9182 C.3     1  UNL1        0.0338
@<TRIPOS>BOND
     1    24    25    1
     2    25    26   am
     3    26    27    2
     4    26     1    1
     5     1     2   ar
     6     2     3   ar
     7     3     4   ar
     8     4     5   ar
     9     5     6   ar
    10     6     7   ar
    11     7    11    1
    12    11    12   ar
    13    12    13   ar
    14    13    14   ar
    15    14    17    1
    16    17    18    1
    17    18    19    1
    18    19    20    1
    19    20    21    1
    20    21    22    1
    21    21    23    1
    22    14    15   ar
    23    15    16   ar
    24     7     8   ar
    25     8     9   ar
    26     9    10   ar
    27    10    29    1
    28    29    31    1
    29    31    32    1
    30    31    33    1
    31    33    34    1
    32    34    35    1
    33    35    36    1
    34    36    37    1
    35    37    38    1
    36    10     1   ar
    37    38    33    1
    38     9     4   ar
    39    16    11   ar
    40    25    28    1
    41    29    30    1
@<TRIPOS>MOLECULE
*****
 38 41 0 0 0
SMALL
GASTEIGER

@<TRIPOS>ATOM
      1 C         141.3084  141.6843  169.3032 C.ar    1  UNL1        0.1689
      2 N         140.5804  140.7450  170.2185 N.ar    1  UNL1       -0.1421
      3 N         139.5281  139.8278  169.6695 N.ar    1  UNL1       -0.1478
      4 C         139.2038  139.8498  168.2051 C.ar    1  UNL1        0.1041
      5 C         138.1516  138.9326  167.6561 C.ar    1  UNL1        0.0209
      6 C         137.8273  138.9546  166.1917 C.ar    1  UNL1        0.0017
      7 C         138.5553  139.8939  165.2764 C.ar    1  UNL1        0.0016
      8 C         139.6076  140.8111  165.8254 C.ar    1  UNL1        0.0029
      9 C         139.9318  140.7891  167.2898 C.ar    1  UNL1        0.0342
     10 C         140.9841  141.7063  167.8389 C.ar    1  UNL1        0.0702
     11 C         138.2310  139.9159  163.8120 C.ar    1  UNL1        0.0194
     12 C         138.4483  138.6888  162.9772 C.ar    1  UNL1        0.0063
     13 C         138.1240  138.7109  161.5128 C.ar    1  UNL1        0.0577
     14 C         137.5824  139.9600  160.8833 C.ar    1  UNL1        0.2249
     15 N         137.3651  141.1872  161.7182 N.ar    1  UNL1       -0.2101
     16 C         137.6894  141.1651  163.1825 C.ar    1  UNL1        0.1020
     17 O         137.2581  139.9821  159.4189 O.3     1  UNL1       -0.4602
     18 C         138.2417  140.5540  158.4415 C.3     1  UNL1        0.2085
     19 C         139.7049  140.5691  158.7718 C.3     1  UNL1        0.0647
     20 C         140.6805  139.8488  157.8890 C.3     1  UNL1        0.0760
     21 N         141.4550  138.6809  158.4237 N.3     1  UNL1       -0.2702
     22 C         141.5704  138.4721  159.9047 C.3     1  UNL1        0.0897
     23 C         142.1142  137.7216  157.4775 C.3     1  UNL1        0.0897
     24 C         144.8592  143.1273  170.3324 C.3     1  UNL1        0.1110
     25 N         143.8070  142.2101  169.7833 N.am    1  UNL1       -0.2978
     26 C         142.3606  142.6015  169.8523 C.2     1  UNL1        0.2666
     27 O         141.9665  143.9102  170.4703 O.2     1  UNL1       -0.2684
     28 H         144.0657  141.3511  169.3777 H       1  UNL1        0.1498
     29 N         141.7121  142.6456  166.9235 N.pl3   1  UNL1       -0.3327
     30 H         141.3736  143.5598  166.7857 H       1  UNL1        0.1468
     31 C         142.9558  142.1920  166.2181 C.3     1  UNL1        0.0692
     32 C         144.1943  143.0369  166.2636 C.3     1  UNL1        0.0212
     33 C         142.9609  140.8934  165.4673 C.3     1  UNL1        0.0229
     34 C         142.6906  140.8791  163.9919 C.3     1  UNL1        0.0338
     35 C         142.6957  139.5806  163.2411 C.3     1  UNL1        0.1422
     36 O         142.9711  138.2964  163.9656 O.3     1  UNL1       -0.3538
     37 C         143.2414  138.3106  165.4410 C.3     1  UNL1        0.1422
     38 C         143.2363  139.6092  166.1919 C.3     1  UNL1        0.0338
@<TRIPOS>BOND
     1    24    25    1
     2    25    26   am
     3    26    27    2
     4    26     1    1
     5     1     2   ar
     6     2     3   ar
     7     3     4   ar
     8     4     5   ar
     9     5     6   ar
    10     6     7   ar
    11     7    11    1
    12    11    12   ar
    13    12    13   ar
    14    13    14   ar
    15    14    17    1
    16    17    18    1
    17    18    19    1
    18    19    20    1
    19    20    21    1
    20    21    22    1
    21    21    23    1
    22    14    15   ar
    23    15    16   ar
    24     7     8   ar
    25     8     9   ar
    26     9    10   ar
    27    10    29    1
    28    29    31    1
    29    31    32    1
    30    31    33    1
    31    33    34    1
    32    34    35    1
    33    35    36    1
    34    36    37    1
    35    37    38    1
    36    10     1   ar
    37    38    33    1
    38     9     4   ar
    39    16    11   ar
    40    25    28    1
    41    29    30    1
@<TRIPOS>MOLECULE
*****
 38 41 0 0 0
SMALL
GASTEIGER

@<TRIPOS>ATOM
      1 C         140.5258  141.0686  167.3401 C.ar    1  UNL1        0.1689
      2 N         139.3921  140.1908  167.7811 N.ar    1  UNL1       -0.1421
      3 N         138.8665  139.1271  166.8635 N.ar    1  UNL1       -0.1478
      4 C         139.4745  138.9410  165.5048 C.ar    1  UNL1        0.1041
      5 C         138.9488  137.8773  164.5872 C.ar    1  UNL1        0.0209
      6 C         139.5568  137.6913  163.2287 C.ar    1  UNL1        0.0017
      7 C         140.6904  138.5690  162.7877 C.ar    1  UNL1        0.0016
      8 C         141.2161  139.6328  163.7053 C.ar    1  UNL1        0.0029
      9 C         140.6081  139.8188  165.0639 C.ar    1  UNL1        0.0342
     10 C         141.1337  140.8826  165.9816 C.ar    1  UNL1        0.0702
     11 C         141.2984  138.3830  161.4291 C.ar    1  UNL1        0.0194
     12 C         140.5264  138.7699  160.2026 C.ar    1  UNL1        0.0063
     13 C         141.1344  138.5838  158.8440 C.ar    1  UNL1        0.0577
     14 C         142.5143  138.0108  158.7119 C.ar    1  UNL1        0.2249
     15 N         143.2863  137.6239  159.9385 N.ar    1  UNL1       -0.2101
     16 C         142.6783  137.8100  161.2970 C.ar    1  UNL1        0.1020
     17 O         143.1223  137.8248  157.3534 O.3     1  UNL1       -0.4602
     18 C         142.7946  136.6040  156.5459 C.3     1  UNL1        0.2085
     19 C         143.8933  135.6935  156.0832 C.3     1  UNL1        0.0647
     20 C         143.5602  134.3524  155.4998 C.3     1  UNL1        0.0760
     21 N         143.9787  133.1001  156.2115 N.3     1  UNL1       -0.2702
     22 C         144.3772  133.1562  157.6566 C.3     1  UNL1        0.0897
     23 C         143.9988  131.7917  155.4782 C.3     1  UNL1        0.0897
     24 C         140.6258  144.0168  169.9950 C.3     1  UNL1        0.1110
     25 N         140.1002  142.9530  169.0774 N.am    1  UNL1       -0.2978
     26 C         141.0514  142.1324  168.2578 C.2     1  UNL1        0.2666
     27 O         142.5283  142.3756  168.3559 O.2     1  UNL1       -0.2684
     28 H         139.1308  142.7934  169.0130 H       1  UNL1        0.1498
     29 N         142.2673  141.7604  165.5406 N.pl3   1  UNL1       -0.3327
     30 H         143.1952  141.5118  165.7566 H       1  UNL1        0.1468
     31 C         141.9873  143.0169  164.7706 C.3     1  UNL1        0.0692
     32 C         143.1132  143.9363  164.4004 C.3     1  UNL1        0.0212
     33 C         140.5814  143.3539  164.3708 C.3     1  UNL1        0.0229
     34 C         139.6778  144.0650  165.3340 C.3     1  UNL1        0.0338
     35 C         138.2719  144.4020  164.9342 C.3     1  UNL1        0.1422
     36 O         137.7696  144.0279  163.5713 O.3     1  UNL1       -0.3538
     37 C         138.6732  143.3167  162.6080 C.3     1  UNL1        0.1422
     38 C         140.0791  142.9797  163.0078 C.3     1  UNL1        0.0338
@<TRIPOS>BOND
     1    24    25    1
     2    25    26   am
     3    26    27    2
     4    26     1    1
     5     1     2   ar
     6     2     3   ar
     7     3     4   ar
     8     4     5   ar
     9     5     6   ar
    10     6     7   ar
    11     7    11    1
    12    11    12   ar
    13    12    13   ar
    14    13    14   ar
    15    14    17    1
    16    17    18    1
    17    18    19    1
    18    19    20    1
    19    20    21    1
    20    21    22    1
    21    21    23    1
    22    14    15   ar
    23    15    16   ar
    24     7     8   ar
    25     8     9   ar
    26     9    10   ar
    27    10    29    1
    28    29    31    1
    29    31    32    1
    30    31    33    1
    31    33    34    1
    32    34    35    1
    33    35    36    1
    34    36    37    1
    35    37    38    1
    36    10     1   ar
    37    38    33    1
    38     9     4   ar
    39    16    11   ar
    40    25    28    1
    41    29    30    1
@<TRIPOS>MOLECULE
*****
 38 41 0 0 0
SMALL
GASTEIGER

@<TRIPOS>ATOM
      1 C         140.9404  140.3348  168.8708 C.ar    1  UNL1        0.1689
      2 N         142.0414  139.5463  169.5160 N.ar    1  UNL1       -0.1421
      3 N         143.0717  138.8631  168.6665 N.ar    1  UNL1       -0.1478
      4 C         143.0011  138.9684  167.1718 C.ar    1  UNL1        0.1041
      5 C         144.0315  138.2853  166.3223 C.ar    1  UNL1        0.0209
      6 C         143.9608  138.3906  164.8277 C.ar    1  UNL1        0.0017
      7 C         142.8599  139.1790  164.1826 C.ar    1  UNL1        0.0016
      8 C         141.8295  139.8622  165.0321 C.ar    1  UNL1        0.0029
      9 C         141.9002  139.7569  166.5267 C.ar    1  UNL1        0.0342
     10 C         140.8698  140.4401  167.3762 C.ar    1  UNL1        0.0702
     11 C         142.7893  139.2843  162.6879 C.ar    1  UNL1        0.0194
     12 C         141.5765  139.8774  162.0343 C.ar    1  UNL1        0.0063
     13 C         141.5059  139.9827  160.5396 C.ar    1  UNL1        0.0577
     14 C         142.6482  139.4949  159.6986 C.ar    1  UNL1        0.2249
     15 N         143.8610  138.9018  160.3523 N.ar    1  UNL1       -0.2101
     16 C         143.9316  138.7965  161.8469 C.ar    1  UNL1        0.1020
     17 O         142.5776  139.6002  158.2040 O.3     1  UNL1       -0.4602
     18 C         143.2423  140.7462  157.5007 C.3     1  UNL1        0.2085
     19 C         143.2192  142.1161  158.1115 C.3     1  UNL1        0.0647
     20 C         144.2844  142.5203  159.0872 C.3     1  UNL1        0.0760
     21 N         143.9248  142.8022  160.5159 N.3     1  UNL1       -0.2702
     22 C         142.6409  143.5063  160.8413 C.3     1  UNL1        0.0897
     23 C         144.8491  142.3800  161.6192 C.3     1  UNL1        0.0897
     24 C         139.1479  143.0715  171.1174 C.3     1  UNL1        0.1110
     25 N         140.1783  142.3884  170.2679 N.am    1  UNL1       -0.2978
     26 C         139.9100  141.0179  169.7204 C.2     1  UNL1        0.2666
     27 O         138.6114  140.3306  170.0223 O.2     1  UNL1       -0.2684
     28 H         141.0306  142.8395  170.0698 H       1  UNL1        0.1498
     29 N         139.7688  141.2285  166.7311 N.pl3   1  UNL1       -0.3327
     30 H         139.7208  142.2034  166.8600 H       1  UNL1        0.1468
     31 C         138.7410  140.5317  165.8896 C.3     1  UNL1        0.0692
     32 C         138.1311  139.2456  166.3627 C.3     1  UNL1        0.0212
     33 C         138.3232  141.1210  164.5750 C.3     1  UNL1        0.0229
     34 C         138.0915  140.2278  163.3925 C.3     1  UNL1        0.0338
     35 C         137.6737  140.8171  162.0779 C.3     1  UNL1        0.1422
     36 O         137.4875  142.2996  161.9458 O.3     1  UNL1       -0.3538
     37 C         137.7192  143.1929  163.1284 C.3     1  UNL1        0.1422
     38 C         138.1370  142.6036  164.4430 C.3     1  UNL1        0.0338
@<TRIPOS>BOND
     1    24    25    1
     2    25    26   am
     3    26    27    2
     4    26     1    1
     5     1     2   ar
     6     2     3   ar
     7     3     4   ar
     8     4     5   ar
     9     5     6   ar
    10     6     7   ar
    11     7    11    1
    12    11    12   ar
    13    12    13   ar
    14    13    14   ar
    15    14    17    1
    16    17    18    1
    17    18    19    1
    18    19    20    1
    19    20    21    1
    20    21    22    1
    21    21    23    1
    22    14    15   ar
    23    15    16   ar
    24     7     8   ar
    25     8     9   ar
    26     9    10   ar
    27    10    29    1
    28    29    31    1
    29    31    32    1
    30    31    33    1
    31    33    34    1
    32    34    35    1
    33    35    36    1
    34    36    37    1
    35    37    38    1
    36    10     1   ar
    37    38    33    1
    38     9     4   ar
    39    16    11   ar
    40    25    28    1
    41    29    30    1
