@<TRIPOS>MOLECULE
*****
 32 37 0 0 0
SMALL
GASTEIGER

@<TRIPOS>ATOM
      1 C         142.5705  136.7110  157.7532 C.3     1  UNL1        0.1161
      2 C         143.2966  135.4138  157.5529 C.3     1  UNL1        0.0510
      3 C         142.9393  134.5248  156.3988 C.2     1  UNL1       -0.0044
      4 C         141.8560  134.9330  155.4450 C.2     1  UNL1        0.0689
      5 N         141.7238  133.8586  154.4066 N.2     1  UNL1       -0.2526
      6 C         142.7254  132.7865  154.7186 C.2     1  UNL1        0.0627
      7 C         143.0504  131.4886  154.0406 C.3     1  UNL1        0.0717
      8 C         144.1267  130.6024  154.5939 C.2     1  UNL1       -0.0198
      9 C         144.8779  131.0141  155.8252 C.2     1  UNL1       -0.0042
     10 C         144.5529  132.3120  156.5032 C.2     1  UNL1        0.0006
     11 C         143.4767  133.1982  155.9499 C.2     1  UNL1        0.0111
     12 C         141.1299  136.2302  155.6453 C.3     1  UNL1        0.0949
     13 N         141.4872  137.1192  156.7994 N.3     1  UNL1       -0.2887
     14 H         140.6383  137.2397  157.3520 H       1  UNL1        0.1239
     15 C         143.2496  138.4378  161.1624 C.ar    1  UNL1        0.0947
     16 C         143.7055  139.4982  160.2045 C.ar    1  UNL1        0.1187
     17 N         143.5066  138.9805  158.8108 N.ar    1  UNL1       -0.2282
     18 C         142.9278  137.6001  158.9074 C.ar    1  UNL1        0.1318
     19 N         142.7689  137.2646  160.3607 N.ar    1  UNL1       -0.3385
     20 H         142.4118  136.4224  160.7246 H       1  UNL1        0.1672
     21 C         143.3127  138.7255  165.6527 C.ar    1  UNL1        0.0207
     22 C         144.4407  139.3005  164.8484 C.ar    1  UNL1        0.0032
     23 C         144.4197  139.2046  163.3517 C.ar    1  UNL1        0.0207
     24 C         143.2706  138.5337  162.6592 C.ar    1  UNL1        0.0984
     25 N         142.1426  137.9587  163.4635 N.ar    1  UNL1       -0.2423
     26 C         142.1636  138.0546  164.9602 C.ar    1  UNL1        0.0989
     27 C         140.0466  136.6383  154.6915 C.3     1  UNL1        0.0252
     28 C         138.7487  137.1765  155.2165 C.3     1  UNL1        0.0339
     29 C         137.6653  137.5846  154.2626 C.3     1  UNL1        0.1422
     30 O         137.8800  137.4546  152.7837 O.3     1  UNL1       -0.3538
     31 C         139.1780  136.9165  152.2587 C.3     1  UNL1        0.1422
     32 C         140.2612  136.5083  153.2125 C.3     1  UNL1        0.0339
@<TRIPOS>BOND
     1    21    22   ar
     2    22    23   ar
     3    23    24   ar
     4    24    15    1
     5    15    16   ar
     6    16    17   ar
     7    17    18   ar
     8     1    18    1
     9     1     2    1
    10     2     3    1
    11     3     4    2
    12     4     5    1
    13     5     6    2
    14     6     7    1
    15     7     8    1
    16     8     9    2
    17     9    10    1
    18    10    11    2
    19     4    12    1
    20    12    27    1
    21    27    28    1
    22    28    29    1
    23    29    30    1
    24    30    31    1
    25    31    32    1
    26    12    13    1
    27    18    19   ar
    28    24    25   ar
    29    25    26   ar
    30    26    21   ar
    31    19    15   ar
    32    13     1    1
    33    11     3    1
    34    32    27    1
    35    11     6    1
    36    13    14    1
    37    19    20    1
@<TRIPOS>MOLECULE
*****
 32 37 0 0 0
SMALL
GASTEIGER

@<TRIPOS>ATOM
      1 C         140.0782  136.7797  155.3946 C.3     1  UNL1        0.1161
      2 C         140.6366  135.4481  154.9884 C.3     1  UNL1        0.0510
      3 C         141.8748  134.9204  155.6507 C.2     1  UNL1       -0.0044
      4 C         142.5545  135.7244  156.7191 C.2     1  UNL1        0.0689
      5 N         143.7510  134.9519  157.1899 N.2     1  UNL1       -0.2526
      6 C         143.8107  133.6705  156.4124 C.2     1  UNL1        0.0627
      7 C         144.7712  132.5189  156.4477 C.3     1  UNL1        0.0717
      8 C         144.5721  131.3479  155.5318 C.2     1  UNL1       -0.0198
      9 C         143.4125  131.3285  154.5805 C.2     1  UNL1       -0.0042
     10 C         142.4520  132.4800  154.5451 C.2     1  UNL1        0.0006
     11 C         142.6512  133.6511  155.4611 C.2     1  UNL1        0.0111
     12 C         141.9961  137.0560  157.1253 C.3     1  UNL1        0.0949
     13 N         140.7580  137.5837  156.4631 N.3     1  UNL1       -0.2887
     14 H         141.0073  138.4795  156.0438 H       1  UNL1        0.1239
     15 C         136.7730  138.5140  154.3301 C.ar    1  UNL1        0.0947
     16 C         137.0965  137.7247  153.0963 C.ar    1  UNL1        0.1187
     17 N         138.3740  136.9789  153.3449 N.ar    1  UNL1       -0.2282
     18 C         138.8400  137.3074  154.7323 C.ar    1  UNL1        0.1318
     19 N         137.8506  138.2561  155.3412 N.ar    1  UNL1       -0.3385
     20 H         137.8998  138.6418  156.2457 H       1  UNL1        0.1672
     21 C         133.1976  141.1867  154.8984 C.ar    1  UNL1        0.0207
     22 C         134.1007  141.3833  153.7171 C.ar    1  UNL1        0.0032
     23 C         135.2925  140.4925  153.5276 C.ar    1  UNL1        0.0207
     24 C         135.5811  139.4049  154.5196 C.ar    1  UNL1        0.0984
     25 N         134.6780  139.2083  155.7009 N.ar    1  UNL1       -0.2423
     26 C         133.4862  140.0991  155.8903 C.ar    1  UNL1        0.0989
     27 C         142.6758  137.8600  158.1938 C.3     1  UNL1        0.0252
     28 C         143.1768  139.2406  157.8891 C.3     1  UNL1        0.0339
     29 C         143.8565  140.0445  158.9577 C.3     1  UNL1        0.1422
     30 O         144.0352  139.4678  160.3308 O.3     1  UNL1       -0.3538
     31 C         143.5342  138.0872  160.6354 C.3     1  UNL1        0.1422
     32 C         142.8545  137.2833  159.5670 C.3     1  UNL1        0.0339
@<TRIPOS>BOND
     1    21    22   ar
     2    22    23   ar
     3    23    24   ar
     4    24    15    1
     5    15    16   ar
     6    16    17   ar
     7    17    18   ar
     8     1    18    1
     9     1     2    1
    10     2     3    1
    11     3     4    2
    12     4     5    1
    13     5     6    2
    14     6     7    1
    15     7     8    1
    16     8     9    2
    17     9    10    1
    18    10    11    2
    19     4    12    1
    20    12    27    1
    21    27    28    1
    22    28    29    1
    23    29    30    1
    24    30    31    1
    25    31    32    1
    26    12    13    1
    27    18    19   ar
    28    24    25   ar
    29    25    26   ar
    30    26    21   ar
    31    19    15   ar
    32    13     1    1
    33    11     3    1
    34    32    27    1
    35    11     6    1
    36    13    14    1
    37    19    20    1
@<TRIPOS>MOLECULE
*****
 32 37 0 0 0
SMALL
GASTEIGER

@<TRIPOS>ATOM
      1 C         142.0981  139.9957  160.6714 C.3     1  UNL1        0.1161
      2 C         142.5656  139.3515  161.9429 C.3     1  UNL1        0.0510
      3 C         142.2260  139.9706  163.2662 C.2     1  UNL1       -0.0044
      4 C         141.4190  141.2340  163.3181 C.2     1  UNL1        0.0689
      5 N         141.2398  141.6106  164.7590 N.2     1  UNL1       -0.2526
      6 C         141.9361  140.5801  165.5975 C.2     1  UNL1        0.0627
      7 C         142.0938  140.4337  167.0820 C.3     1  UNL1        0.0717
      8 C         142.8611  139.2737  167.6439 C.2     1  UNL1       -0.0198
      9 C         143.4706  138.2601  166.7213 C.2     1  UNL1       -0.0042
     10 C         143.3128  138.4065  165.2368 C.2     1  UNL1        0.0006
     11 C         142.5456  139.5665  164.6750 C.2     1  UNL1        0.0111
     12 C         140.9515  141.8781  162.0467 C.3     1  UNL1        0.0949
     13 N         141.2911  141.2590  160.7233 N.3     1  UNL1       -0.2887
     14 H         141.8084  141.9608  160.1939 H       1  UNL1        0.1239
     15 C         142.8176  137.7433  157.5933 C.ar    1  UNL1        0.0947
     16 C         143.1031  139.1038  157.0300 C.ar    1  UNL1        0.1187
     17 N         142.8684  140.1132  158.1144 N.ar    1  UNL1       -0.2282
     18 C         142.4378  139.3764  159.3480 C.ar    1  UNL1        0.1318
     19 N         142.4063  137.9118  159.0260 N.ar    1  UNL1       -0.3385
     20 H         142.1592  137.1881  159.6460 H       1  UNL1        0.1672
     21 C         143.1382  133.8413  155.3749 C.ar    1  UNL1        0.0207
     22 C         142.9106  135.1170  154.6194 C.ar    1  UNL1        0.0032
     23 C         142.8038  136.4176  155.3589 C.ar    1  UNL1        0.0207
     24 C         142.9244  136.4426  156.8538 C.ar    1  UNL1        0.0984
     25 N         143.1520  135.1669  157.6093 N.ar    1  UNL1       -0.2423
     26 C         143.2588  133.8662  156.8698 C.ar    1  UNL1        0.0989
     27 C         140.1445  143.1415  162.0986 C.3     1  UNL1        0.0252
     28 C         138.7720  143.1303  162.7035 C.3     1  UNL1        0.0339
     29 C         137.9650  144.3937  162.7554 C.3     1  UNL1        0.1422
     30 O         138.5305  145.6682  162.2023 O.3     1  UNL1       -0.3538
     31 C         139.9031  145.6793  161.5973 C.3     1  UNL1        0.1422
     32 C         140.7100  144.4160  161.5455 C.3     1  UNL1        0.0339
@<TRIPOS>BOND
     1    21    22   ar
     2    22    23   ar
     3    23    24   ar
     4    24    15    1
     5    15    16   ar
     6    16    17   ar
     7    17    18   ar
     8     1    18    1
     9     1     2    1
    10     2     3    1
    11     3     4    2
    12     4     5    1
    13     5     6    2
    14     6     7    1
    15     7     8    1
    16     8     9    2
    17     9    10    1
    18    10    11    2
    19     4    12    1
    20    12    27    1
    21    27    28    1
    22    28    29    1
    23    29    30    1
    24    30    31    1
    25    31    32    1
    26    12    13    1
    27    18    19   ar
    28    24    25   ar
    29    25    26   ar
    30    26    21   ar
    31    19    15   ar
    32    13     1    1
    33    11     3    1
    34    32    27    1
    35    11     6    1
    36    13    14    1
    37    19    20    1
@<TRIPOS>MOLECULE
*****
 32 37 0 0 0
SMALL
GASTEIGER

@<TRIPOS>ATOM
      1 C         143.3714  140.2294  158.0999 C.3     1  UNL1        0.1161
      2 C         143.9206  140.2233  159.4957 C.3     1  UNL1        0.0510
      3 C         143.8007  141.4475  160.3542 C.2     1  UNL1       -0.0044
      4 C         143.1316  142.6777  159.8168 C.2     1  UNL1        0.0689
      5 N         143.1606  143.7267  160.8886 N.2     1  UNL1       -0.2526
      6 C         143.8476  143.1448  162.0884 C.2     1  UNL1        0.0627
      7 C         144.1641  143.7156  163.4389 C.3     1  UNL1        0.0717
      8 C         144.8762  142.8778  164.4591 C.2     1  UNL1       -0.0198
      9 C         145.2719  141.4691  164.1288 C.2     1  UNL1       -0.0042
     10 C         144.9554  140.8983  162.7783 C.2     1  UNL1        0.0006
     11 C         144.2433  141.7361  161.7581 C.2     1  UNL1        0.0111
     12 C         142.5823  142.6838  158.4210 C.3     1  UNL1        0.0949
     13 N         142.7022  141.4596  157.5625 N.3     1  UNL1       -0.2887
     14 H         143.2191  141.7350  156.7275 H       1  UNL1        0.1239
     15 C         143.3037  136.7233  156.4359 C.ar    1  UNL1        0.0947
     16 C         144.0478  137.5191  155.4050 C.ar    1  UNL1        0.1187
     17 N         144.1638  138.9293  155.9028 N.ar    1  UNL1       -0.2282
     18 C         143.4913  139.0051  157.2414 C.ar    1  UNL1        0.1318
     19 N         142.9597  137.6418  157.5709 N.ar    1  UNL1       -0.3385
     20 H         142.4708  137.3933  158.3886 H       1  UNL1        0.1672
     21 C         142.2823  132.3489  156.1705 C.ar    1  UNL1        0.0207
     22 C         141.5105  133.3496  155.3625 C.ar    1  UNL1        0.0032
     23 C         141.8510  134.8077  155.4510 C.ar    1  UNL1        0.0207
     24 C         142.9632  135.2651  156.3475 C.ar    1  UNL1        0.0984
     25 N         143.7350  134.2644  157.1554 N.ar    1  UNL1       -0.2423
     26 C         143.3945  132.8063  157.0669 C.ar    1  UNL1        0.0989
     27 C         141.9132  143.9140  157.8837 C.3     1  UNL1        0.0252
     28 C         140.8216  144.5779  158.6694 C.3     1  UNL1        0.0339
     29 C         140.1524  145.8082  158.1320 C.3     1  UNL1        0.1422
     30 O         140.5750  146.3745  156.8088 O.3     1  UNL1       -0.3538
     31 C         141.6667  145.7106  156.0231 C.3     1  UNL1        0.1422
     32 C         142.3357  144.4804  156.5605 C.3     1  UNL1        0.0339
@<TRIPOS>BOND
     1    21    22   ar
     2    22    23   ar
     3    23    24   ar
     4    24    15    1
     5    15    16   ar
     6    16    17   ar
     7    17    18   ar
     8     1    18    1
     9     1     2    1
    10     2     3    1
    11     3     4    2
    12     4     5    1
    13     5     6    2
    14     6     7    1
    15     7     8    1
    16     8     9    2
    17     9    10    1
    18    10    11    2
    19     4    12    1
    20    12    27    1
    21    27    28    1
    22    28    29    1
    23    29    30    1
    24    30    31    1
    25    31    32    1
    26    12    13    1
    27    18    19   ar
    28    24    25   ar
    29    25    26   ar
    30    26    21   ar
    31    19    15   ar
    32    13     1    1
    33    11     3    1
    34    32    27    1
    35    11     6    1
    36    13    14    1
    37    19    20    1
@<TRIPOS>MOLECULE
*****
 32 37 0 0 0
SMALL
GASTEIGER

@<TRIPOS>ATOM
      1 C         143.1218  139.3001  158.0370 C.3     1  UNL1        0.1161
      2 C         142.3354  140.4782  157.5431 C.3     1  UNL1        0.0510
      3 C         142.1786  141.6920  158.4101 C.2     1  UNL1       -0.0044
      4 C         142.8080  141.7279  159.7712 C.2     1  UNL1        0.0689
      5 N         142.4846  143.0524  160.3966 N.2     1  UNL1       -0.2526
      6 C         141.6553  143.8351  159.4221 C.2     1  UNL1        0.0627
      7 C         141.0480  145.2047  159.4941 C.3     1  UNL1        0.0717
      8 C         140.2514  145.7336  158.3384 C.2     1  UNL1       -0.0198
      9 C         140.0623  144.8928  157.1107 C.2     1  UNL1       -0.0042
     10 C         140.6696  143.5232  157.0387 C.2     1  UNL1        0.0006
     11 C         141.4661  142.9943  158.1944 C.2     1  UNL1        0.0111
     12 C         143.5944  140.5499  160.2651 C.3     1  UNL1        0.0949
     13 N         143.7512  139.3360  159.3981 N.3     1  UNL1       -0.2887
     14 H         143.3671  138.5490  159.9210 H       1  UNL1        0.1239
     15 C         143.1012  135.8217  156.3150 C.ar    1  UNL1        0.0947
     16 C         143.9386  136.6148  155.3561 C.ar    1  UNL1        0.1187
     17 N         144.0483  138.0144  155.8844 N.ar    1  UNL1       -0.2282
     18 C         143.2786  138.0862  157.1699 C.ar    1  UNL1        0.1318
     19 N         142.6932  136.7311  157.4360 N.ar    1  UNL1       -0.3385
     20 H         142.1387  136.4822  158.2105 H       1  UNL1        0.1672
     21 C         142.0049  131.4769  155.9015 C.ar    1  UNL1        0.0207
     22 C         141.3113  132.5086  155.0622 C.ar    1  UNL1        0.0032
     23 C         141.6767  133.9568  155.2001 C.ar    1  UNL1        0.0207
     24 C         142.7358  134.3733  156.1772 C.ar    1  UNL1        0.0984
     25 N         143.4294  133.3417  157.0165 N.ar    1  UNL1       -0.2423
     26 C         143.0640  131.8935  156.8786 C.ar    1  UNL1        0.0989
     27 C         144.2239  140.5858  161.6262 C.3     1  UNL1        0.0252
     28 C         144.0339  139.4363  162.5709 C.3     1  UNL1        0.0339
     29 C         144.6635  139.4722  163.9320 C.3     1  UNL1        0.1422
     30 O         145.4829  140.6576  164.3483 O.3     1  UNL1       -0.3538
     31 C         145.6728  141.8071  163.4035 C.3     1  UNL1        0.1422
     32 C         145.0434  141.7712  162.0426 C.3     1  UNL1        0.0339
@<TRIPOS>BOND
     1    21    22   ar
     2    22    23   ar
     3    23    24   ar
     4    24    15    1
     5    15    16   ar
     6    16    17   ar
     7    17    18   ar
     8     1    18    1
     9     1     2    1
    10     2     3    1
    11     3     4    2
    12     4     5    1
    13     5     6    2
    14     6     7    1
    15     7     8    1
    16     8     9    2
    17     9    10    1
    18    10    11    2
    19     4    12    1
    20    12    27    1
    21    27    28    1
    22    28    29    1
    23    29    30    1
    24    30    31    1
    25    31    32    1
    26    12    13    1
    27    18    19   ar
    28    24    25   ar
    29    25    26   ar
    30    26    21   ar
    31    19    15   ar
    32    13     1    1
    33    11     3    1
    34    32    27    1
    35    11     6    1
    36    13    14    1
    37    19    20    1
@<TRIPOS>MOLECULE
*****
 32 37 0 0 0
SMALL
GASTEIGER

@<TRIPOS>ATOM
      1 C         143.2810  141.2931  160.2946 C.3     1  UNL1        0.1161
      2 C         143.6589  140.4421  161.4706 C.3     1  UNL1        0.0510
      3 C         142.9930  140.6577  162.7972 C.2     1  UNL1       -0.0044
      4 C         141.9491  141.7243  162.9479 C.2     1  UNL1        0.0689
      5 N         141.4685  141.7050  164.3687 N.2     1  UNL1       -0.2526
      6 C         142.2152  140.6264  165.0961 C.2     1  UNL1        0.0627
      7 C         142.1590  140.1501  166.5173 C.3     1  UNL1        0.0717
      8 C         143.0449  139.0265  166.9673 C.2     1  UNL1       -0.0198
      9 C         143.9872  138.3792  165.9961 C.2     1  UNL1       -0.0042
     10 C         144.0434  138.8556  164.5748 C.2     1  UNL1        0.0006
     11 C         143.1574  139.9791  164.1248 C.2     1  UNL1        0.0111
     12 C         141.5712  142.5753  161.7719 C.3     1  UNL1        0.0949
     13 N         142.2371  142.3597  160.4452 N.3     1  UNL1       -0.2887
     14 H         142.6797  143.2428  160.1909 H       1  UNL1        0.1239
     15 C         145.2095  141.4570  156.9301 C.ar    1  UNL1        0.0947
     16 C         144.7339  140.0345  156.9226 C.ar    1  UNL1        0.1187
     17 N         143.9536  139.7999  158.1820 N.ar    1  UNL1       -0.2282
     18 C         143.9469  141.0775  158.9678 C.ar    1  UNL1        0.1318
     19 N         144.7231  142.1017  158.1942 N.ar    1  UNL1       -0.3385
     20 H         144.8849  143.0334  158.4680 H       1  UNL1        0.1672
     21 C         147.6645  143.4423  153.7237 C.ar    1  UNL1        0.0207
     22 C         148.3196  142.5141  154.7031 C.ar    1  UNL1        0.0032
     23 C         147.5013  141.8524  155.7719 C.ar    1  UNL1        0.0207
     24 C         146.0278  142.1188  155.8613 C.ar    1  UNL1        0.0984
     25 N         145.3727  143.0470  154.8819 N.ar    1  UNL1       -0.2423
     26 C         146.1911  143.7088  153.8131 C.ar    1  UNL1        0.0989
     27 C         140.5274  143.6419  161.9226 C.3     1  UNL1        0.0252
     28 C         139.1718  143.2938  162.4619 C.3     1  UNL1        0.0339
     29 C         138.1279  144.3605  162.6126 C.3     1  UNL1        0.1422
     30 O         138.4398  145.7753  162.2239 O.3     1  UNL1       -0.3538
     31 C         139.7955  146.1235  161.6844 C.3     1  UNL1        0.1422
     32 C         140.8392  145.0568  161.5338 C.3     1  UNL1        0.0339
@<TRIPOS>BOND
     1    21    22   ar
     2    22    23   ar
     3    23    24   ar
     4    24    15    1
     5    15    16   ar
     6    16    17   ar
     7    17    18   ar
     8     1    18    1
     9     1     2    1
    10     2     3    1
    11     3     4    2
    12     4     5    1
    13     5     6    2
    14     6     7    1
    15     7     8    1
    16     8     9    2
    17     9    10    1
    18    10    11    2
    19     4    12    1
    20    12    27    1
    21    27    28    1
    22    28    29    1
    23    29    30    1
    24    30    31    1
    25    31    32    1
    26    12    13    1
    27    18    19   ar
    28    24    25   ar
    29    25    26   ar
    30    26    21   ar
    31    19    15   ar
    32    13     1    1
    33    11     3    1
    34    32    27    1
    35    11     6    1
    36    13    14    1
    37    19    20    1
@<TRIPOS>MOLECULE
*****
 32 37 0 0 0
SMALL
GASTEIGER

@<TRIPOS>ATOM
      1 C         141.4270  139.3851  161.6259 C.3     1  UNL1        0.1161
      2 C         140.4812  138.7405  162.5956 C.3     1  UNL1        0.0510
      3 C         140.2614  139.3517  163.9477 C.2     1  UNL1       -0.0044
      4 C         140.9873  140.6074  164.3301 C.2     1  UNL1        0.0689
      5 N         140.5716  140.9771  165.7231 N.2     1  UNL1       -0.2526
      6 C         139.5888  139.9499  166.2016 C.2     1  UNL1        0.0627
      7 C         138.8438  139.7996  167.4947 C.3     1  UNL1        0.0717
      8 C         137.9070  138.6446  167.6905 C.2     1  UNL1       -0.0198
      9 C         137.7152  137.6400  166.5933 C.2     1  UNL1       -0.0042
     10 C         138.4603  137.7904  165.3001 C.2     1  UNL1        0.0006
     11 C         139.3971  138.9454  165.1043 C.2     1  UNL1        0.0111
     12 C         141.9330  141.2520  163.3604 C.3     1  UNL1        0.0949
     13 N         142.1528  140.6408  162.0083 N.3     1  UNL1       -0.2887
     14 H         143.1499  140.4384  161.9352 H       1  UNL1        0.1239
     15 C         141.2646  137.9529  158.0220 C.ar    1  UNL1        0.0947
     16 C         142.7053  137.7137  158.3643 C.ar    1  UNL1        0.1187
     17 N         142.9415  138.2211  159.7560 N.ar    1  UNL1       -0.2282
     18 C         141.6468  138.7738  160.2738 C.ar    1  UNL1        0.1318
     19 N         140.6104  138.6081  159.2022 N.ar    1  UNL1       -0.3385
     20 H         139.6665  138.8814  159.2628 H       1  UNL1        0.1672
     21 C         139.2575  136.8912  154.1369 C.ar    1  UNL1        0.0207
     22 C         140.6159  136.3400  154.4544 C.ar    1  UNL1        0.0032
     23 C         141.2849  136.6939  155.7494 C.ar    1  UNL1        0.0207
     24 C         140.5955  137.5990  156.7270 C.ar    1  UNL1        0.0984
     25 N         139.2370  138.1501  156.4095 N.ar    1  UNL1       -0.2423
     26 C         138.5680  137.7962  155.1145 C.ar    1  UNL1        0.0989
     27 C         142.6589  142.5077  163.7428 C.3     1  UNL1        0.0252
     28 C         143.7578  142.4578  164.7624 C.3     1  UNL1        0.0339
     29 C         144.4837  143.7136  165.1448 C.3     1  UNL1        0.1422
     30 O         144.1106  145.0192  164.5075 O.3     1  UNL1       -0.3538
     31 C         143.0116  145.0691  163.4878 C.3     1  UNL1        0.1422
     32 C         142.2858  143.8134  163.1055 C.3     1  UNL1        0.0339
@<TRIPOS>BOND
     1    21    22   ar
     2    22    23   ar
     3    23    24   ar
     4    24    15    1
     5    15    16   ar
     6    16    17   ar
     7    17    18   ar
     8     1    18    1
     9     1     2    1
    10     2     3    1
    11     3     4    2
    12     4     5    1
    13     5     6    2
    14     6     7    1
    15     7     8    1
    16     8     9    2
    17     9    10    1
    18    10    11    2
    19     4    12    1
    20    12    27    1
    21    27    28    1
    22    28    29    1
    23    29    30    1
    24    30    31    1
    25    31    32    1
    26    12    13    1
    27    18    19   ar
    28    24    25   ar
    29    25    26   ar
    30    26    21   ar
    31    19    15   ar
    32    13     1    1
    33    11     3    1
    34    32    27    1
    35    11     6    1
    36    13    14    1
    37    19    20    1
@<TRIPOS>MOLECULE
*****
 32 37 0 0 0
SMALL
GASTEIGER

@<TRIPOS>ATOM
      1 C         141.3270  138.8779  158.5673 C.3     1  UNL1        0.1161
      2 C         142.3888  139.9293  158.4366 C.3     1  UNL1        0.0510
      3 C         143.4485  139.7983  157.3831 C.2     1  UNL1       -0.0044
      4 C         143.4463  138.6158  156.4602 C.2     1  UNL1        0.0689
      5 N         144.6105  138.7558  155.5248 N.2     1  UNL1       -0.2526
      6 C         145.3322  140.0248  155.8695 C.2     1  UNL1        0.0627
      7 C         146.5505  140.6768  155.2860 C.3     1  UNL1        0.0717
      8 C         147.0506  141.9732  155.8510 C.2     1  UNL1       -0.0198
      9 C         146.3324  142.6175  156.9995 C.2     1  UNL1       -0.0042
     10 C         145.1141  141.9655  157.5830 C.2     1  UNL1        0.0006
     11 C         144.6140  140.6691  157.0180 C.2     1  UNL1        0.0111
     12 C         142.3845  137.5643  156.5909 C.3     1  UNL1        0.0949
     13 N         141.3249  137.6954  157.6444 N.3     1  UNL1       -0.2887
     14 H         141.3888  136.8636  158.2314 H       1  UNL1        0.1239
     15 C         139.1352  139.0158  161.7676 C.ar    1  UNL1        0.0947
     16 C         138.1384  139.4054  160.7166 C.ar    1  UNL1        0.1187
     17 N         138.8381  139.4012  159.3899 N.ar    1  UNL1       -0.2282
     18 C         140.2673  139.0089  159.6209 C.ar    1  UNL1        0.1318
     19 N         140.4510  138.7707  161.0904 N.ar    1  UNL1       -0.3385
     20 H         141.2881  138.5009  161.5327 H       1  UNL1        0.1672
     21 C         138.3213  138.6467  166.1780 C.ar    1  UNL1        0.0207
     22 C         138.7836  137.4518  165.3981 C.ar    1  UNL1        0.0032
     23 C         139.0549  137.5748  163.9280 C.ar    1  UNL1        0.0207
     24 C         138.8639  138.8928  163.2378 C.ar    1  UNL1        0.0984
     25 N         138.4015  140.0878  164.0177 N.ar    1  UNL1       -0.2423
     26 C         138.1302  139.9647  165.4878 C.ar    1  UNL1        0.0989
     27 C         142.3824  136.3818  155.6680 C.3     1  UNL1        0.0252
     28 C         142.7130  135.0175  156.1964 C.3     1  UNL1        0.0339
     29 C         142.7108  133.8350  155.2734 C.3     1  UNL1        0.1422
     30 O         142.3781  134.0169  153.8222 O.3     1  UNL1       -0.3538
     31 C         142.0474  135.3812  153.2938 C.3     1  UNL1        0.1422
     32 C         142.0496  136.5637  154.2167 C.3     1  UNL1        0.0339
@<TRIPOS>BOND
     1    21    22   ar
     2    22    23   ar
     3    23    24   ar
     4    24    15    1
     5    15    16   ar
     6    16    17   ar
     7    17    18   ar
     8     1    18    1
     9     1     2    1
    10     2     3    1
    11     3     4    2
    12     4     5    1
    13     5     6    2
    14     6     7    1
    15     7     8    1
    16     8     9    2
    17     9    10    1
    18    10    11    2
    19     4    12    1
    20    12    27    1
    21    27    28    1
    22    28    29    1
    23    29    30    1
    24    30    31    1
    25    31    32    1
    26    12    13    1
    27    18    19   ar
    28    24    25   ar
    29    25    26   ar
    30    26    21   ar
    31    19    15   ar
    32    13     1    1
    33    11     3    1
    34    32    27    1
    35    11     6    1
    36    13    14    1
    37    19    20    1
@<TRIPOS>MOLECULE
*****
 32 37 0 0 0
SMALL
GASTEIGER

@<TRIPOS>ATOM
      1 C         141.6044  139.6560  160.8872 C.3     1  UNL1        0.1161
      2 C         142.1142  139.0884  162.1787 C.3     1  UNL1        0.0510
      3 C         141.9603  139.8659  163.4522 C.2     1  UNL1       -0.0044
      4 C         141.2967  141.2110  163.4341 C.2     1  UNL1        0.0689
      5 N         141.2871  141.7419  164.8370 N.2     1  UNL1       -0.2526
      6 C         141.9447  140.7249  165.7221 C.2     1  UNL1        0.0627
      7 C         142.2184  140.7049  167.1967 C.3     1  UNL1        0.0717
      8 C         142.9082  139.5254  167.8155 C.2     1  UNL1       -0.0198
      9 C         143.3243  138.3659  166.9596 C.2     1  UNL1       -0.0042
     10 C         143.0506  138.3860  165.4849 C.2     1  UNL1        0.0006
     11 C         142.3608  139.5655  164.8662 C.2     1  UNL1        0.0111
     12 C         140.7870  141.7786  162.1426 C.3     1  UNL1        0.0949
     13 N         140.9408  141.0012  160.8691 N.3     1  UNL1       -0.2887
     14 H         141.4789  141.5864  160.2300 H       1  UNL1        0.1239
     15 C         141.3154  137.9097  157.4329 C.ar    1  UNL1        0.0947
     16 C         142.6745  137.4544  157.8750 C.ar    1  UNL1        0.1187
     17 N         142.9482  138.0531  159.2228 N.ar    1  UNL1       -0.2282
     18 C         141.7583  138.8785  159.6136 C.ar    1  UNL1        0.1318
     19 N         140.7491  138.7898  158.5074 N.ar    1  UNL1       -0.3385
     20 H         139.8696  139.2318  158.4897 H       1  UNL1        0.1672
     21 C         139.2922  136.8255  153.5624 C.ar    1  UNL1        0.0207
     22 C         140.7862  136.7520  153.6739 C.ar    1  UNL1        0.0032
     23 C         141.4606  137.1134  154.9640 C.ar    1  UNL1        0.0207
     24 C         140.6409  137.5483  156.1427 C.ar    1  UNL1        0.0984
     25 N         139.1469  137.6217  156.0311 N.ar    1  UNL1       -0.2423
     26 C         138.4725  137.2603  154.7410 C.ar    1  UNL1        0.0989
     27 C         140.1234  143.1238  162.1246 C.3     1  UNL1        0.0252
     28 C         140.7658  144.2672  161.3969 C.3     1  UNL1        0.0339
     29 C         140.1022  145.6124  161.3789 C.3     1  UNL1        0.1422
     30 O         138.7961  145.8139  162.0886 O.3     1  UNL1       -0.3538
     31 C         138.1537  144.6704  162.8163 C.3     1  UNL1        0.1422
     32 C         138.8173  143.3253  162.8343 C.3     1  UNL1        0.0339
@<TRIPOS>BOND
     1    21    22   ar
     2    22    23   ar
     3    23    24   ar
     4    24    15    1
     5    15    16   ar
     6    16    17   ar
     7    17    18   ar
     8     1    18    1
     9     1     2    1
    10     2     3    1
    11     3     4    2
    12     4     5    1
    13     5     6    2
    14     6     7    1
    15     7     8    1
    16     8     9    2
    17     9    10    1
    18    10    11    2
    19     4    12    1
    20    12    27    1
    21    27    28    1
    22    28    29    1
    23    29    30    1
    24    30    31    1
    25    31    32    1
    26    12    13    1
    27    18    19   ar
    28    24    25   ar
    29    25    26   ar
    30    26    21   ar
    31    19    15   ar
    32    13     1    1
    33    11     3    1
    34    32    27    1
    35    11     6    1
    36    13    14    1
    37    19    20    1
