@<TRIPOS>MOLECULE
*****
 35 39 0 0 0
SMALL
GASTEIGER

@<TRIPOS>ATOM
      1 N         143.0144  144.2237  162.5824 N.3     1  UNL1       -0.2703
      2 C         142.2192  143.6155  161.4655 C.3     1  UNL1        0.0736
      3 C         140.7511  143.9000  161.3486 C.3     1  UNL1        0.0331
      4 C         140.0782  144.7928  162.3488 C.3     1  UNL1        0.0570
      5 C         140.8735  145.4011  163.4657 C.3     1  UNL1        0.0331
      6 C         142.3416  145.1165  163.5825 C.3     1  UNL1        0.0736
      7 N         138.6101  145.0774  162.2319 N.3     1  UNL1       -0.2934
      8 H         138.3678  144.9748  161.2464 H       1  UNL1        0.1236
      9 C         137.6230  144.2569  163.0081 C.3     1  UNL1        0.1152
     10 C         137.8126  142.7741  163.1312 C.ar    1  UNL1        0.0782
     11 C         138.0665  142.1595  164.4758 C.ar    1  UNL1        0.0562
     12 C         138.2561  140.6766  164.5989 C.ar    1  UNL1        0.1752
     13 C         138.1917  139.8083  163.3775 C.ar    1  UNL1        0.1914
     14 C         137.9378  140.4229  162.0329 C.ar    1  UNL1        0.1384
     15 N         137.7482  141.9058  161.9098 N.ar    1  UNL1       -0.2434
     16 O         138.3813  138.3254  163.5006 O.3     1  UNL1       -0.4668
     17 C         138.6352  137.7109  164.8451 C.3     1  UNL1        0.2527
     18 C         138.6996  138.5792  166.0666 C.3     1  UNL1        0.2526
     19 O         138.5100  140.0620  165.9435 O.3     1  UNL1       -0.4683
     20 C         144.4825  143.9392  162.6993 C.3     1  UNL1        0.1064
     21 C         144.9527  142.6991  163.4002 C.3     1  UNL1        0.1502
     22 O         146.1546  141.9600  162.8913 O.3     1  UNL1       -0.3786
     23 H         146.5057  142.4134  162.1090 H       1  UNL1        0.2108
     24 C         143.0248  138.6335  163.3407 C.ar    1  UNL1        0.2250
     25 C         142.2931  138.1326  164.5505 C.ar    1  UNL1        0.0593
     26 C         142.2040  138.9870  165.7802 C.ar    1  UNL1        0.0254
     27 C         142.8466  140.3422  165.8001 C.ar    1  UNL1        0.0989
     28 N         142.7575  141.1965  167.0298 N.ar    1  UNL1       -0.2423
     29 C         143.4002  142.5517  167.0496 C.ar    1  UNL1        0.0987
     30 C         144.1319  143.0526  165.8397 C.ar    1  UNL1        0.0203
     31 C         144.2210  142.1983  164.6101 C.ar    1  UNL1        0.0264
     32 C         143.5783  140.8430  164.5902 C.ar    1  UNL1        0.1003
     33 N         143.6674  139.9887  163.3606 N.ar    1  UNL1       -0.2104
     34 C         143.9587  138.2185  160.9520 C.3     1  UNL1        0.2542
     35 O         143.1139  137.7791  162.1110 O.3     1  UNL1       -0.4561
@<TRIPOS>BOND
     1    34    35    1
     2    35    24    1
     3    24    25   ar
     4    25    26   ar
     5    26    27   ar
     6    27    28   ar
     7    28    29   ar
     8    29    30   ar
     9    30    31   ar
    10    31    21    1
    11    21    22    1
    12    21    20    1
    13    20     1    1
    14     1     2    1
    15     2     3    1
    16     3     4    1
    17     4     7    1
    18     7     9    1
    19     9    10    1
    20    10    11   ar
    21    11    12   ar
    22    12    13   ar
    23    13    14   ar
    24    14    15   ar
    25    13    16    1
    26    16    17    1
    27    17    18    1
    28    18    19    1
    29     4     5    1
    30     5     6    1
    31    31    32   ar
    32    32    33   ar
    33    33    24   ar
    34    32    27   ar
    35     6     1    1
    36    15    10   ar
    37    19    12    1
    38    22    23    1
    39     7     8    1
@<TRIPOS>MOLECULE
*****
 35 39 0 0 0
SMALL
GASTEIGER

@<TRIPOS>ATOM
      1 N         141.9588  138.0295  163.5654 N.3     1  UNL1       -0.2703
      2 C         142.5699  138.3006  162.2227 C.3     1  UNL1        0.0736
      3 C         143.7900  139.1665  162.1150 C.3     1  UNL1        0.0331
      4 C         144.3990  139.7613  163.3501 C.3     1  UNL1        0.0570
      5 C         143.7878  139.4901  164.6929 C.3     1  UNL1        0.0331
      6 C         142.5677  138.6242  164.8005 C.3     1  UNL1        0.0736
      7 N         145.6190  140.6271  163.2424 N.3     1  UNL1       -0.2934
      8 H         145.9011  140.6179  162.2623 H       1  UNL1        0.1236
      9 C         145.5569  142.0661  163.6615 C.3     1  UNL1        0.1152
     10 C         144.3262  142.8764  163.3811 C.ar    1  UNL1        0.0782
     11 C         143.9604  143.2199  161.9675 C.ar    1  UNL1        0.0562
     12 C         142.7296  144.0303  161.6871 C.ar    1  UNL1        0.1752
     13 C         141.8648  144.4972  162.8202 C.ar    1  UNL1        0.1914
     14 C         142.2307  144.1538  164.2338 C.ar    1  UNL1        0.1384
     15 N         143.4613  143.3434  164.5142 N.ar    1  UNL1       -0.2434
     16 O         140.6341  145.3076  162.5398 O.3     1  UNL1       -0.4668
     17 C         140.2682  145.6511  161.1262 C.3     1  UNL1        0.2527
     18 C         141.1331  145.1841  159.9931 C.3     1  UNL1        0.2526
     19 O         142.3637  144.3737  160.2735 O.3     1  UNL1       -0.4683
     20 C         140.7387  137.1636  163.6731 C.3     1  UNL1        0.1064
     21 C         139.4307  137.7605  164.1007 C.3     1  UNL1        0.1502
     22 O         138.7936  137.3273  165.3877 O.3     1  UNL1       -0.3786
     23 H         139.3529  136.6611  165.8171 H       1  UNL1        0.2108
     24 C         139.3452  142.0672  165.4028 C.ar    1  UNL1        0.2250
     25 C         138.6743  143.0973  164.5434 C.ar    1  UNL1        0.0593
     26 C         138.0319  142.6920  163.2500 C.ar    1  UNL1        0.0254
     27 C         138.0603  141.2565  162.8159 C.ar    1  UNL1        0.0989
     28 N         137.4179  140.8511  161.5225 N.ar    1  UNL1       -0.2423
     29 C         137.4464  139.4156  161.0885 C.ar    1  UNL1        0.0987
     30 C         138.1173  138.3853  161.9479 C.ar    1  UNL1        0.0203
     31 C         138.7598  138.7907  163.2413 C.ar    1  UNL1        0.0264
     32 C         138.7313  140.2263  163.6753 C.ar    1  UNL1        0.1003
     33 N         139.3737  140.6316  164.9688 N.ar    1  UNL1       -0.2104
     34 C         141.2911  141.8573  167.1114 C.3     1  UNL1        0.2542
     35 O         139.9876  142.4725  166.6963 O.3     1  UNL1       -0.4561
@<TRIPOS>BOND
     1    34    35    1
     2    35    24    1
     3    24    25   ar
     4    25    26   ar
     5    26    27   ar
     6    27    28   ar
     7    28    29   ar
     8    29    30   ar
     9    30    31   ar
    10    31    21    1
    11    21    22    1
    12    21    20    1
    13    20     1    1
    14     1     2    1
    15     2     3    1
    16     3     4    1
    17     4     7    1
    18     7     9    1
    19     9    10    1
    20    10    11   ar
    21    11    12   ar
    22    12    13   ar
    23    13    14   ar
    24    14    15   ar
    25    13    16    1
    26    16    17    1
    27    17    18    1
    28    18    19    1
    29     4     5    1
    30     5     6    1
    31    31    32   ar
    32    32    33   ar
    33    33    24   ar
    34    32    27   ar
    35     6     1    1
    36    15    10   ar
    37    19    12    1
    38    22    23    1
    39     7     8    1
@<TRIPOS>MOLECULE
*****
 35 39 0 0 0
SMALL
GASTEIGER

@<TRIPOS>ATOM
      1 N         138.0235  143.0623  162.7288 N.3     1  UNL1       -0.2703
      2 C         137.6835  141.9136  163.6316 C.3     1  UNL1        0.0736
      3 C         137.6142  140.5207  163.0793 C.3     1  UNL1        0.0331
      4 C         137.8848  140.2764  161.6242 C.3     1  UNL1        0.0570
      5 C         138.2247  141.4251  160.7215 C.3     1  UNL1        0.0331
      6 C         138.2940  142.8181  161.2738 C.3     1  UNL1        0.0736
      7 N         137.8154  138.8836  161.0720 N.3     1  UNL1       -0.2934
      8 H         137.2815  138.9370  160.2045 H       1  UNL1        0.1236
      9 C         139.0783  138.1376  160.7579 C.3     1  UNL1        0.1152
     10 C         140.2688  138.2644  161.6615 C.ar    1  UNL1        0.0782
     11 C         141.3264  139.2872  161.3695 C.ar    1  UNL1        0.0562
     12 C         142.5170  139.4140  162.2732 C.ar    1  UNL1        0.1752
     13 C         142.6499  138.5180  163.4687 C.ar    1  UNL1        0.1914
     14 C         141.5923  137.4951  163.7607 C.ar    1  UNL1        0.1384
     15 N         140.4018  137.3683  162.8571 N.ar    1  UNL1       -0.2434
     16 O         143.8405  138.6448  164.3724 O.3     1  UNL1       -0.4668
     17 C         144.8981  139.6676  164.0805 C.3     1  UNL1        0.2527
     18 C         144.7651  140.5637  162.8848 C.3     1  UNL1        0.2526
     19 O         143.5746  140.4369  161.9812 O.3     1  UNL1       -0.4683
     20 C         138.0928  144.4551  163.2811 C.3     1  UNL1        0.1064
     21 C         139.0455  144.7737  164.3951 C.3     1  UNL1        0.1502
     22 O         138.5422  145.4248  165.6492 O.3     1  UNL1       -0.3786
     23 H         137.5859  145.5700  165.5767 H       1  UNL1        0.2108
     24 C         140.9936  141.9329  167.2907 C.ar    1  UNL1        0.2250
     25 C         142.4495  141.6004  167.1505 C.ar    1  UNL1        0.0593
     26 C         143.2561  142.2149  166.0452 C.ar    1  UNL1        0.0254
     27 C         142.6068  143.1618  165.0800 C.ar    1  UNL1        0.0989
     28 N         143.4134  143.7763  163.9746 N.ar    1  UNL1       -0.2423
     29 C         142.7641  144.7233  163.0094 C.ar    1  UNL1        0.0987
     30 C         141.3080  145.0558  163.1495 C.ar    1  UNL1        0.0203
     31 C         140.5014  144.4413  164.2549 C.ar    1  UNL1        0.0264
     32 C         141.1508  143.4943  165.2201 C.ar    1  UNL1        0.1003
     33 N         140.3442  142.8798  166.3255 N.ar    1  UNL1       -0.2104
     34 C         139.5048  139.9997  168.1829 C.3     1  UNL1        0.2542
     35 O         140.1870  141.3184  168.3960 O.3     1  UNL1       -0.4561
@<TRIPOS>BOND
     1    34    35    1
     2    35    24    1
     3    24    25   ar
     4    25    26   ar
     5    26    27   ar
     6    27    28   ar
     7    28    29   ar
     8    29    30   ar
     9    30    31   ar
    10    31    21    1
    11    21    22    1
    12    21    20    1
    13    20     1    1
    14     1     2    1
    15     2     3    1
    16     3     4    1
    17     4     7    1
    18     7     9    1
    19     9    10    1
    20    10    11   ar
    21    11    12   ar
    22    12    13   ar
    23    13    14   ar
    24    14    15   ar
    25    13    16    1
    26    16    17    1
    27    17    18    1
    28    18    19    1
    29     4     5    1
    30     5     6    1
    31    31    32   ar
    32    32    33   ar
    33    33    24   ar
    34    32    27   ar
    35     6     1    1
    36    15    10   ar
    37    19    12    1
    38    22    23    1
    39     7     8    1
@<TRIPOS>MOLECULE
*****
 35 39 0 0 0
SMALL
GASTEIGER

@<TRIPOS>ATOM
      1 N         142.1203  138.2380  162.5718 N.3     1  UNL1       -0.2703
      2 C         142.7791  138.9150  161.4067 C.3     1  UNL1        0.0736
      3 C         143.9752  139.7928  161.6275 C.3     1  UNL1        0.0331
      4 C         144.5126  139.9935  163.0136 C.3     1  UNL1        0.0570
      5 C         143.8537  139.3165  164.1787 C.3     1  UNL1        0.0331
      6 C         142.6575  138.4387  163.9578 C.3     1  UNL1        0.0736
      7 N         145.7087  140.8713  163.2344 N.3     1  UNL1       -0.2934
      8 H         146.2039  140.9236  162.3443 H       1  UNL1        0.1236
      9 C         145.5262  142.2815  163.7118 C.3     1  UNL1        0.1152
     10 C         144.2279  142.9930  163.4704 C.ar    1  UNL1        0.0782
     11 C         143.8890  143.4894  162.0961 C.ar    1  UNL1        0.0562
     12 C         142.5907  144.2009  161.8546 C.ar    1  UNL1        0.1752
     13 C         141.6314  144.4160  162.9875 C.ar    1  UNL1        0.1914
     14 C         141.9703  143.9197  164.3618 C.ar    1  UNL1        0.1384
     15 N         143.2686  143.2082  164.6033 N.ar    1  UNL1       -0.2434
     16 O         140.3331  145.1275  162.7461 O.3     1  UNL1       -0.4668
     17 C         139.9941  145.6239  161.3718 C.3     1  UNL1        0.2527
     18 C         140.9535  145.4087  160.2389 C.3     1  UNL1        0.2526
     19 O         142.2517  144.6972  160.4803 O.3     1  UNL1       -0.4683
     20 C         140.9242  137.3602  162.3510 C.3     1  UNL1        0.1064
     21 C         139.5453  137.9503  162.3793 C.3     1  UNL1        0.1502
     22 O         138.6237  137.7594  161.2113 O.3     1  UNL1       -0.3786
     23 H         139.0713  137.2357  160.5285 H       1  UNL1        0.2108
     24 C         138.1291  142.1934  161.8896 C.ar    1  UNL1        0.2250
     25 C         137.6720  142.9743  163.0859 C.ar    1  UNL1        0.0593
     26 C         137.6869  142.3408  164.4455 C.ar    1  UNL1        0.0254
     27 C         138.1590  140.9265  164.6087 C.ar    1  UNL1        0.0989
     28 N         138.1739  140.2930  165.9683 N.ar    1  UNL1       -0.2423
     29 C         138.6459  138.8786  166.1316 C.ar    1  UNL1        0.0987
     30 C         139.1031  138.0977  164.9352 C.ar    1  UNL1        0.0203
     31 C         139.0882  138.7312  163.5756 C.ar    1  UNL1        0.0264
     32 C         138.6161  140.1456  163.4124 C.ar    1  UNL1        0.1003
     33 N         138.6012  140.7791  162.0528 N.ar    1  UNL1       -0.2104
     34 C         139.0507  142.3388  159.4648 C.3     1  UNL1        0.2542
     35 O         138.1142  142.8269  160.5300 O.3     1  UNL1       -0.4561
@<TRIPOS>BOND
     1    34    35    1
     2    35    24    1
     3    24    25   ar
     4    25    26   ar
     5    26    27   ar
     6    27    28   ar
     7    28    29   ar
     8    29    30   ar
     9    30    31   ar
    10    31    21    1
    11    21    22    1
    12    21    20    1
    13    20     1    1
    14     1     2    1
    15     2     3    1
    16     3     4    1
    17     4     7    1
    18     7     9    1
    19     9    10    1
    20    10    11   ar
    21    11    12   ar
    22    12    13   ar
    23    13    14   ar
    24    14    15   ar
    25    13    16    1
    26    16    17    1
    27    17    18    1
    28    18    19    1
    29     4     5    1
    30     5     6    1
    31    31    32   ar
    32    32    33   ar
    33    33    24   ar
    34    32    27   ar
    35     6     1    1
    36    15    10   ar
    37    19    12    1
    38    22    23    1
    39     7     8    1
@<TRIPOS>MOLECULE
*****
 35 39 0 0 0
SMALL
GASTEIGER

@<TRIPOS>ATOM
      1 N         138.0746  141.0088  163.6781 N.3     1  UNL1       -0.2703
      2 C         138.0762  141.3240  162.2116 C.3     1  UNL1        0.0736
      3 C         138.2087  142.7449  161.7500 C.3     1  UNL1        0.0331
      4 C         138.3397  143.8509  162.7549 C.3     1  UNL1        0.0570
      5 C         138.3381  143.5358  164.2214 C.3     1  UNL1        0.0331
      6 C         138.2055  142.1147  164.6830 C.3     1  UNL1        0.0736
      7 N         138.4722  145.2719  162.2933 N.3     1  UNL1       -0.2934
      8 H         137.9967  145.8517  162.9847 H       1  UNL1        0.1236
      9 C         139.8324  145.8702  162.0883 C.3     1  UNL1        0.1152
     10 C         141.0397  144.9826  162.0206 C.ar    1  UNL1        0.0782
     11 C         141.8127  144.6713  163.2678 C.ar    1  UNL1        0.0562
     12 C         143.0200  143.7837  163.2001 C.ar    1  UNL1        0.1752
     13 C         143.4543  143.2074  161.8851 C.ar    1  UNL1        0.1914
     14 C         142.6813  143.5186  160.6379 C.ar    1  UNL1        0.1384
     15 N         141.4740  144.4062  160.7056 N.ar    1  UNL1       -0.2434
     16 O         144.6616  142.3197  161.8173 O.3     1  UNL1       -0.4668
     17 C         145.4346  142.0085  163.0646 C.3     1  UNL1        0.2527
     18 C         145.0003  142.5849  164.3796 C.3     1  UNL1        0.2526
     19 O         143.7930  143.4725  164.4473 O.3     1  UNL1       -0.4683
     20 C         137.9420  139.5878  164.1398 C.3     1  UNL1        0.1064
     21 C         138.4573  139.1868  165.4903 C.3     1  UNL1        0.1502
     22 O         137.4950  138.8714  166.5968 O.3     1  UNL1       -0.3786
     23 H         136.5861  138.9747  166.2742 H       1  UNL1        0.2108
     24 C         140.2254  140.9469  169.2354 C.ar    1  UNL1        0.2250
     25 C         141.7029  140.8613  169.4792 C.ar    1  UNL1        0.0593
     26 C         142.5911  140.1889  168.4747 C.ar    1  UNL1        0.0254
     27 C         142.0018  139.6023  167.2263 C.ar    1  UNL1        0.0989
     28 N         142.8900  138.9299  166.2218 N.ar    1  UNL1       -0.2423
     29 C         142.3007  138.3432  164.9735 C.ar    1  UNL1        0.0987
     30 C         140.8231  138.4288  164.7296 C.ar    1  UNL1        0.0203
     31 C         139.9349  139.1012  165.7341 C.ar    1  UNL1        0.0264
     32 C         140.5243  139.6879  166.9825 C.ar    1  UNL1        0.1003
     33 N         139.6361  140.3602  167.9870 N.ar    1  UNL1       -0.2104
     34 C         139.7102  142.9640  170.7897 C.3     1  UNL1        0.2542
     35 O         139.3372  141.6192  170.2399 O.3     1  UNL1       -0.4561
@<TRIPOS>BOND
     1    34    35    1
     2    35    24    1
     3    24    25   ar
     4    25    26   ar
     5    26    27   ar
     6    27    28   ar
     7    28    29   ar
     8    29    30   ar
     9    30    31   ar
    10    31    21    1
    11    21    22    1
    12    21    20    1
    13    20     1    1
    14     1     2    1
    15     2     3    1
    16     3     4    1
    17     4     7    1
    18     7     9    1
    19     9    10    1
    20    10    11   ar
    21    11    12   ar
    22    12    13   ar
    23    13    14   ar
    24    14    15   ar
    25    13    16    1
    26    16    17    1
    27    17    18    1
    28    18    19    1
    29     4     5    1
    30     5     6    1
    31    31    32   ar
    32    32    33   ar
    33    33    24   ar
    34    32    27   ar
    35     6     1    1
    36    15    10   ar
    37    19    12    1
    38    22    23    1
    39     7     8    1
@<TRIPOS>MOLECULE
*****
 35 39 0 0 0
SMALL
GASTEIGER

@<TRIPOS>ATOM
      1 N         143.3231  143.5303  161.9799 N.3     1  UNL1       -0.2703
      2 C         143.0762  144.1206  163.3365 C.3     1  UNL1        0.0736
      3 C         141.7609  144.7736  163.6422 C.3     1  UNL1        0.0331
      4 C         140.6924  144.8363  162.5912 C.3     1  UNL1        0.0570
      5 C         140.9393  144.2460  161.2346 C.3     1  UNL1        0.0331
      6 C         142.2547  143.5930  160.9289 C.3     1  UNL1        0.0736
      7 N         139.3771  145.4893  162.8969 N.3     1  UNL1       -0.2934
      8 H         139.0851  145.9747  162.0487 H       1  UNL1        0.1236
      9 C         138.2117  144.6564  163.3420 C.3     1  UNL1        0.1152
     10 C         138.3730  143.1759  163.5214 C.ar    1  UNL1        0.0782
     11 C         137.9837  142.2397  162.4161 C.ar    1  UNL1        0.0562
     12 C         138.1450  140.7592  162.5955 C.ar    1  UNL1        0.1752
     13 C         138.6956  140.2150  163.8803 C.ar    1  UNL1        0.1914
     14 C         139.0849  141.1512  164.9857 C.ar    1  UNL1        0.1384
     15 N         138.9236  142.6317  164.8063 N.ar    1  UNL1       -0.2434
     16 O         138.8569  138.7345  164.0598 O.3     1  UNL1       -0.4668
     17 C         138.4676  137.7982  162.9544 C.3     1  UNL1        0.2527
     18 C         137.9170  138.3424  161.6695 C.3     1  UNL1        0.2526
     19 O         137.7558  139.8229  161.4901 O.3     1  UNL1       -0.4683
     20 C         144.6384  142.8773  161.6742 C.3     1  UNL1        0.1064
     21 C         145.1241  141.7371  162.5193 C.3     1  UNL1        0.1502
     22 O         146.4356  141.8430  163.2396 O.3     1  UNL1       -0.3786
     23 H         146.8380  142.7057  163.0535 H       1  UNL1        0.2108
     24 C         142.9597  140.8478  166.3630 C.ar    1  UNL1        0.2250
     25 C         142.1340  139.6019  166.4878 C.ar    1  UNL1        0.0593
     26 C         142.0296  138.6523  165.3313 C.ar    1  UNL1        0.0254
     27 C         142.7511  138.9487  164.0501 C.ar    1  UNL1        0.0989
     28 N         142.6468  137.9991  162.8936 N.ar    1  UNL1       -0.2423
     29 C         143.3682  138.2955  161.6124 C.ar    1  UNL1        0.0987
     30 C         144.1940  139.5415  161.4876 C.ar    1  UNL1        0.0203
     31 C         144.2984  140.4911  162.6441 C.ar    1  UNL1        0.0264
     32 C         143.5768  140.1947  163.9253 C.ar    1  UNL1        0.1003
     33 N         143.6812  141.1442  165.0818 N.ar    1  UNL1       -0.2104
     34 C         141.8456  142.1309  168.3284 C.3     1  UNL1        0.2542
     35 O         143.0640  141.7974  167.5195 O.3     1  UNL1       -0.4561
@<TRIPOS>BOND
     1    34    35    1
     2    35    24    1
     3    24    25   ar
     4    25    26   ar
     5    26    27   ar
     6    27    28   ar
     7    28    29   ar
     8    29    30   ar
     9    30    31   ar
    10    31    21    1
    11    21    22    1
    12    21    20    1
    13    20     1    1
    14     1     2    1
    15     2     3    1
    16     3     4    1
    17     4     7    1
    18     7     9    1
    19     9    10    1
    20    10    11   ar
    21    11    12   ar
    22    12    13   ar
    23    13    14   ar
    24    14    15   ar
    25    13    16    1
    26    16    17    1
    27    17    18    1
    28    18    19    1
    29     4     5    1
    30     5     6    1
    31    31    32   ar
    32    32    33   ar
    33    33    24   ar
    34    32    27   ar
    35     6     1    1
    36    15    10   ar
    37    19    12    1
    38    22    23    1
    39     7     8    1
@<TRIPOS>MOLECULE
*****
 35 39 0 0 0
SMALL
GASTEIGER

@<TRIPOS>ATOM
      1 N         138.7806  142.5016  160.4513 N.3     1  UNL1       -0.2703
      2 C         139.8868  143.2793  159.8022 C.3     1  UNL1        0.0736
      3 C         140.5157  144.4340  160.5241 C.3     1  UNL1        0.0331
      4 C         140.0383  144.8110  161.8953 C.3     1  UNL1        0.0570
      5 C         138.9321  144.0333  162.5445 C.3     1  UNL1        0.0331
      6 C         138.3032  142.8785  161.8224 C.3     1  UNL1        0.0736
      7 N         140.6672  145.9656  162.6173 N.3     1  UNL1       -0.2934
      8 H         139.9161  146.4495  163.1093 H       1  UNL1        0.1236
      9 C         141.7546  145.7201  163.6209 C.3     1  UNL1        0.1152
     10 C         142.6220  144.5020  163.5041 C.ar    1  UNL1        0.0782
     11 C         142.3699  143.3144  164.3851 C.ar    1  UNL1        0.0562
     12 C         143.2374  142.0963  164.2682 C.ar    1  UNL1        0.1752
     13 C         144.3570  142.0658  163.2705 C.ar    1  UNL1        0.1914
     14 C         144.6092  143.2534  162.3896 C.ar    1  UNL1        0.1384
     15 N         143.7417  144.4715  162.5064 N.ar    1  UNL1       -0.2434
     16 O         145.2245  140.8476  163.1536 O.3     1  UNL1       -0.4668
     17 C         144.9724  139.6600  164.0346 C.3     1  UNL1        0.2527
     18 C         143.8527  139.6906  165.0323 C.3     1  UNL1        0.2526
     19 O         142.9853  140.9087  165.1491 O.3     1  UNL1       -0.4683
     20 C         138.1517  141.3470  159.7294 C.3     1  UNL1        0.1064
     21 C         138.0717  140.0028  160.3905 C.3     1  UNL1        0.1502
     22 O         136.7405  139.4476  160.8023 O.3     1  UNL1       -0.3786
     23 H         136.0413  140.0788  160.5706 H       1  UNL1        0.2108
     24 C         138.9622  138.4407  164.5156 C.ar    1  UNL1        0.2250
     25 C         140.2134  137.6518  164.7649 C.ar    1  UNL1        0.0593
     26 C         141.1678  137.3837  163.6392 C.ar    1  UNL1        0.0254
     27 C         140.8710  137.9044  162.2642 C.ar    1  UNL1        0.0989
     28 N         141.8253  137.6362  161.1384 N.ar    1  UNL1       -0.2423
     29 C         141.5285  138.1569  159.7634 C.ar    1  UNL1        0.0987
     30 C         140.2773  138.9458  159.5141 C.ar    1  UNL1        0.0203
     31 C         139.3229  139.2140  160.6398 C.ar    1  UNL1        0.0264
     32 C         139.6198  138.6932  162.0149 C.ar    1  UNL1        0.1003
     33 N         138.6654  138.9614  163.1406 N.ar    1  UNL1       -0.2104
     34 C         138.5302  139.1253  166.9843 C.3     1  UNL1        0.2542
     35 O         138.0078  138.7088  165.6414 O.3     1  UNL1       -0.4561
@<TRIPOS>BOND
     1    34    35    1
     2    35    24    1
     3    24    25   ar
     4    25    26   ar
     5    26    27   ar
     6    27    28   ar
     7    28    29   ar
     8    29    30   ar
     9    30    31   ar
    10    31    21    1
    11    21    22    1
    12    21    20    1
    13    20     1    1
    14     1     2    1
    15     2     3    1
    16     3     4    1
    17     4     7    1
    18     7     9    1
    19     9    10    1
    20    10    11   ar
    21    11    12   ar
    22    12    13   ar
    23    13    14   ar
    24    14    15   ar
    25    13    16    1
    26    16    17    1
    27    17    18    1
    28    18    19    1
    29     4     5    1
    30     5     6    1
    31    31    32   ar
    32    32    33   ar
    33    33    24   ar
    34    32    27   ar
    35     6     1    1
    36    15    10   ar
    37    19    12    1
    38    22    23    1
    39     7     8    1
@<TRIPOS>MOLECULE
*****
 35 39 0 0 0
SMALL
GASTEIGER

@<TRIPOS>ATOM
      1 N         138.8486  143.5503  163.1830 N.3     1  UNL1       -0.2703
      2 C         139.4634  143.3049  164.5290 C.3     1  UNL1        0.0736
      3 C         139.1386  142.0505  165.2845 C.3     1  UNL1        0.0331
      4 C         138.1988  141.0414  164.6940 C.3     1  UNL1        0.0570
      5 C         137.5840  141.2867  163.3480 C.3     1  UNL1        0.0331
      6 C         137.9089  142.5412  162.5925 C.3     1  UNL1        0.0736
      7 N         137.8740  139.7869  165.4495 N.3     1  UNL1       -0.2934
      8 H         137.2324  139.2498  164.8663 H       1  UNL1        0.1236
      9 C         138.9732  138.8519  165.8587 C.3     1  UNL1        0.1152
     10 C         140.2397  138.7870  165.0576 C.ar    1  UNL1        0.0782
     11 C         140.2178  138.2340  163.6634 C.ar    1  UNL1        0.0562
     12 C         141.4843  138.1692  162.8623 C.ar    1  UNL1        0.1752
     13 C         142.7727  138.6573  163.4554 C.ar    1  UNL1        0.1914
     14 C         142.7946  139.2102  164.8496 C.ar    1  UNL1        0.1384
     15 N         141.5282  139.2751  165.6507 N.ar    1  UNL1       -0.2434
     16 O         144.0393  138.5924  162.6543 O.3     1  UNL1       -0.4668
     17 C         144.0174  138.0394  161.2601 C.3     1  UNL1        0.2527
     18 C         142.7289  137.5513  160.6671 C.3     1  UNL1        0.2526
     19 O         141.4624  137.6162  161.4682 O.3     1  UNL1       -0.4683
     20 C         139.1734  144.8047  162.4274 C.3     1  UNL1        0.1064
     21 C         140.6020  145.2297  162.2583 C.3     1  UNL1        0.1502
     22 O         141.2111  146.2104  163.2160 O.3     1  UNL1       -0.3786
     23 H         140.5511  146.4678  163.8787 H       1  UNL1        0.2108
     24 C         144.1734  142.6374  163.1386 C.ar    1  UNL1        0.2250
     25 C         144.9928  142.0818  162.0118 C.ar    1  UNL1        0.0593
     26 C         144.6218  142.3903  160.5915 C.ar    1  UNL1        0.0254
     27 C         143.4313  143.2544  160.2981 C.ar    1  UNL1        0.0989
     28 N         143.0603  143.5628  158.8778 N.ar    1  UNL1       -0.2423
     29 C         141.8699  144.4269  158.5843 C.ar    1  UNL1        0.0987
     30 C         141.0504  144.9826  159.7112 C.ar    1  UNL1        0.0203
     31 C         141.4214  144.6741  161.1315 C.ar    1  UNL1        0.0264
     32 C         142.6119  143.8100  161.4249 C.ar    1  UNL1        0.1003
     33 N         142.9829  143.5015  162.8452 N.ar    1  UNL1       -0.2104
     34 C         144.5183  143.4146  165.5936 C.3     1  UNL1        0.2542
     35 O         144.5444  142.3289  164.5589 O.3     1  UNL1       -0.4561
@<TRIPOS>BOND
     1    34    35    1
     2    35    24    1
     3    24    25   ar
     4    25    26   ar
     5    26    27   ar
     6    27    28   ar
     7    28    29   ar
     8    29    30   ar
     9    30    31   ar
    10    31    21    1
    11    21    22    1
    12    21    20    1
    13    20     1    1
    14     1     2    1
    15     2     3    1
    16     3     4    1
    17     4     7    1
    18     7     9    1
    19     9    10    1
    20    10    11   ar
    21    11    12   ar
    22    12    13   ar
    23    13    14   ar
    24    14    15   ar
    25    13    16    1
    26    16    17    1
    27    17    18    1
    28    18    19    1
    29     4     5    1
    30     5     6    1
    31    31    32   ar
    32    32    33   ar
    33    33    24   ar
    34    32    27   ar
    35     6     1    1
    36    15    10   ar
    37    19    12    1
    38    22    23    1
    39     7     8    1
@<TRIPOS>MOLECULE
*****
 35 39 0 0 0
SMALL
GASTEIGER

@<TRIPOS>ATOM
      1 N         142.8851  143.8444  162.3665 N.3     1  UNL1       -0.2703
      2 C         141.8060  144.6564  161.7135 C.3     1  UNL1        0.0736
      3 C         140.6186  145.1062  162.5121 C.3     1  UNL1        0.0331
      4 C         140.5103  144.7440  163.9638 C.3     1  UNL1        0.0570
      5 C         141.5893  143.9321  164.6167 C.3     1  UNL1        0.0331
      6 C         142.7768  143.4823  163.8181 C.3     1  UNL1        0.0736
      7 N         139.3229  145.1938  164.7623 N.3     1  UNL1       -0.2934
      8 H         139.0122  146.0765  164.3563 H       1  UNL1        0.1236
      9 C         138.1119  144.3147  164.8656 C.3     1  UNL1        0.1152
     10 C         138.1828  142.8847  164.4184 C.ar    1  UNL1        0.0782
     11 C         137.7080  142.5031  163.0476 C.ar    1  UNL1        0.0562
     12 C         137.7790  141.0730  162.6004 C.ar    1  UNL1        0.1752
     13 C         138.3247  140.0246  163.5240 C.ar    1  UNL1        0.1914
     14 C         138.7995  140.4062  164.8947 C.ar    1  UNL1        0.1384
     15 N         138.7286  141.8362  165.3419 N.ar    1  UNL1       -0.2434
     16 O         138.3957  138.5945  163.0768 O.3     1  UNL1       -0.4668
     17 C         137.9209  138.2129  161.7061 C.3     1  UNL1        0.2527
     18 C         137.3751  139.2614  160.7825 C.3     1  UNL1        0.2526
     19 O         137.3042  140.6914  161.2297 O.3     1  UNL1       -0.4683
     20 C         144.0725  143.3947  161.5680 C.3     1  UNL1        0.1064
     21 C         144.5908  141.9951  161.7182 C.3     1  UNL1        0.1502
     22 O         145.8271  141.7360  162.5272 O.3     1  UNL1       -0.3786
     23 H         146.1639  142.5742  162.8806 H       1  UNL1        0.2108
     24 C         142.4704  138.9207  164.2286 C.ar    1  UNL1        0.2250
     25 C         141.7525  137.7802  163.5699 C.ar    1  UNL1        0.0593
     26 C         141.7414  137.6646  162.0744 C.ar    1  UNL1        0.0254
     27 C         142.4482  138.6893  161.2376 C.ar    1  UNL1        0.0989
     28 N         142.4370  138.5737  159.7421 N.ar    1  UNL1       -0.2423
     29 C         143.1438  139.5984  158.9053 C.ar    1  UNL1        0.0987
     30 C         143.8618  140.7390  159.5640 C.ar    1  UNL1        0.0203
     31 C         143.8729  140.8546  161.0595 C.ar    1  UNL1        0.0264
     32 C         143.1661  139.8298  161.8963 C.ar    1  UNL1        0.1003
     33 N         143.1772  139.9454  163.3918 N.ar    1  UNL1       -0.2104
     34 C         143.5658  138.3720  166.5196 C.3     1  UNL1        0.2542
     35 O         142.4816  139.0363  165.7241 O.3     1  UNL1       -0.4561
@<TRIPOS>BOND
     1    34    35    1
     2    35    24    1
     3    24    25   ar
     4    25    26   ar
     5    26    27   ar
     6    27    28   ar
     7    28    29   ar
     8    29    30   ar
     9    30    31   ar
    10    31    21    1
    11    21    22    1
    12    21    20    1
    13    20     1    1
    14     1     2    1
    15     2     3    1
    16     3     4    1
    17     4     7    1
    18     7     9    1
    19     9    10    1
    20    10    11   ar
    21    11    12   ar
    22    12    13   ar
    23    13    14   ar
    24    14    15   ar
    25    13    16    1
    26    16    17    1
    27    17    18    1
    28    18    19    1
    29     4     5    1
    30     5     6    1
    31    31    32   ar
    32    32    33   ar
    33    33    24   ar
    34    32    27   ar
    35     6     1    1
    36    15    10   ar
    37    19    12    1
    38    22    23    1
    39     7     8    1
