@<TRIPOS>MOLECULE
*****
 30 33 0 0 0
SMALL
GASTEIGER

@<TRIPOS>ATOM
      1 C         140.2461  144.2762  161.6511 C.3     1  UNL1        0.0333
      2 C         140.7272  142.8598  161.5407 C.3     1  UNL1        0.0074
      3 C         140.4253  141.8778  162.6337 C.3     1  UNL1        0.0248
      4 C         139.6423  142.3124  163.8371 C.3     1  UNL1        0.1084
      5 C         139.1612  143.7288  163.9474 C.3     1  UNL1        0.0248
      6 C         139.4631  144.7107  162.8544 C.3     1  UNL1        0.0074
      7 C         140.9466  144.3415  160.3262 C.ar    1  UNL1       -0.0207
      8 C         142.2336  143.5991  160.1209 C.ar    1  UNL1       -0.0042
      9 C         142.9340  143.6644  158.7961 C.ar    1  UNL1        0.0005
     10 C         142.3473  144.4722  157.6766 C.ar    1  UNL1        0.0114
     11 C         141.0602  145.2146  157.8819 C.ar    1  UNL1        0.0574
     12 CL        140.4735  146.0224  156.7624 Cl      1  UNL1       -0.0823
     13 C         140.3598  145.1493  159.2067 C.ar    1  UNL1        0.0072
     14 N         139.3404  141.3304  164.9301 N.ar    1  UNL1       -0.2186
     15 N         140.0392  141.4421  166.2527 N.ar    1  UNL1       -0.1668
     16 C         139.7372  140.4600  167.3457 C.ar    1  UNL1        0.1026
     17 C         138.7366  139.3665  167.1160 C.ar    1  UNL1        0.0258
     18 C         138.0378  139.2548  165.7934 C.ar    1  UNL1        0.0638
     19 C         138.3398  140.2368  164.7005 C.ar    1  UNL1        0.2764
     20 O         137.6410  140.1252  163.3778 O.2     1  UNL1       -0.2655
     21 C         140.4360  140.5717  168.6683 C.ar    1  UNL1        0.0385
     22 C         141.8390  140.0636  168.8205 C.ar    1  UNL1        0.0047
     23 C         142.5378  140.1753  170.1431 C.ar    1  UNL1        0.0207
     24 C         141.8334  140.7950  171.3134 C.ar    1  UNL1        0.0989
     25 N         140.4303  141.3031  171.1612 N.ar    1  UNL1       -0.2423
     26 C         139.7316  141.1914  169.8386 C.ar    1  UNL1        0.1004
     27 N         140.2248  146.7833  162.3320 N.3     1  UNL1       -0.3209
     28 C         140.0082  145.7153  161.3013 C.3     1  UNL1        0.0691
     29 H         140.0176  147.6955  161.9252 H       1  UNL1        0.1189
     30 H         141.1957  146.7628  162.6441 H       1  UNL1        0.1189
@<TRIPOS>BOND
     1    27    28    1
     2     1    28    1
     3     1     7    1
     4     7     8   ar
     5     8     9   ar
     6     9    10   ar
     7    10    11   ar
     8    11    12    1
     9    11    13   ar
    10     1     2    1
    11     2     3    1
    12     3     4    1
    13     4    14    1
    14    14    15   ar
    15    15    16   ar
    16    16    21    1
    17    21    22   ar
    18    22    23   ar
    19    23    24   ar
    20    24    25   ar
    21    25    26   ar
    22    16    17   ar
    23    17    18   ar
    24    18    19   ar
    25    19    20    2
    26     4     5    1
    27     5     6    1
    28     6     1    1
    29    13     7   ar
    30    19    14   ar
    31    26    21   ar
    32    27    29    1
    33    27    30    1
@<TRIPOS>MOLECULE
*****
 30 33 0 0 0
SMALL
GASTEIGER

@<TRIPOS>ATOM
      1 C         140.0994  140.5146  167.1232 C.3     1  UNL1        0.0333
      2 C         140.6859  141.5098  166.1664 C.3     1  UNL1        0.0074
      3 C         140.3779  141.4134  164.7015 C.3     1  UNL1        0.0248
      4 C         139.4833  140.3217  164.1935 C.3     1  UNL1        0.1084
      5 C         138.8969  139.3265  165.1503 C.3     1  UNL1        0.0248
      6 C         139.2049  139.4229  166.6152 C.3     1  UNL1        0.0074
      7 C         140.8850  141.3630  168.0788 C.ar    1  UNL1       -0.0207
      8 C         142.2957  140.9907  168.4270 C.ar    1  UNL1       -0.0042
      9 C         143.0812  141.8391  169.3826 C.ar    1  UNL1        0.0005
     10 C         142.4560  143.0598  169.9900 C.ar    1  UNL1        0.0114
     11 C         141.0453  143.4321  169.6418 C.ar    1  UNL1        0.0574
     12 CL        140.4201  144.6529  170.2493 Cl      1  UNL1       -0.0823
     13 C         140.2598  142.5838  168.6863 C.ar    1  UNL1        0.0072
     14 N         139.1753  140.2252  162.7287 N.ar    1  UNL1       -0.2186
     15 N         140.1203  139.5100  161.8091 N.ar    1  UNL1       -0.1668
     16 C         139.8122  139.4136  160.3442 C.ar    1  UNL1        0.1026
     17 C         138.5593  140.0323  159.7989 C.ar    1  UNL1        0.0258
     18 C         137.6144  140.7475  160.7185 C.ar    1  UNL1        0.0638
     19 C         137.9225  140.8439  162.1834 C.ar    1  UNL1        0.2764
     20 O         136.9775  141.5592  163.1030 O.2     1  UNL1       -0.2655
     21 C         140.7571  138.6984  159.4246 C.ar    1  UNL1        0.0385
     22 C         140.3086  138.3007  158.0496 C.ar    1  UNL1        0.0047
     23 C         141.2536  137.5855  157.1300 C.ar    1  UNL1        0.0207
     24 C         142.6470  137.2680  157.5856 C.ar    1  UNL1        0.0989
     25 N         143.0955  137.6656  158.9606 N.ar    1  UNL1       -0.2423
     26 C         142.1505  138.3808  159.8801 C.ar    1  UNL1        0.1004
     27 N         138.3715  139.4303  168.7321 N.3     1  UNL1       -0.3209
     28 C         139.7857  139.8140  168.4120 C.3     1  UNL1        0.0691
     29 H         138.3422  138.9667  169.6402 H       1  UNL1        0.1189
     30 H         138.0208  138.7955  168.0148 H       1  UNL1        0.1189
@<TRIPOS>BOND
     1    27    28    1
     2     1    28    1
     3     1     7    1
     4     7     8   ar
     5     8     9   ar
     6     9    10   ar
     7    10    11   ar
     8    11    12    1
     9    11    13   ar
    10     1     2    1
    11     2     3    1
    12     3     4    1
    13     4    14    1
    14    14    15   ar
    15    15    16   ar
    16    16    21    1
    17    21    22   ar
    18    22    23   ar
    19    23    24   ar
    20    24    25   ar
    21    25    26   ar
    22    16    17   ar
    23    17    18   ar
    24    18    19   ar
    25    19    20    2
    26     4     5    1
    27     5     6    1
    28     6     1    1
    29    13     7   ar
    30    19    14   ar
    31    26    21   ar
    32    27    29    1
    33    27    30    1
@<TRIPOS>MOLECULE
*****
 30 33 0 0 0
SMALL
GASTEIGER

@<TRIPOS>ATOM
      1 C         140.2907  144.2474  161.5587 C.3     1  UNL1        0.0333
      2 C         140.7499  142.8231  161.4558 C.3     1  UNL1        0.0074
      3 C         140.4409  141.8540  162.5581 C.3     1  UNL1        0.0248
      4 C         139.6727  142.3091  163.7635 C.3     1  UNL1        0.1084
      5 C         139.2135  143.7333  163.8664 C.3     1  UNL1        0.0248
      6 C         139.5225  144.7025  162.7641 C.3     1  UNL1        0.0074
      7 C         140.9829  144.2924  160.2287 C.ar    1  UNL1       -0.0207
      8 C         140.3891  145.0827  159.1005 C.ar    1  UNL1       -0.0042
      9 C         141.0813  145.1276  157.7706 C.ar    1  UNL1        0.0005
     10 C         142.3673  144.3823  157.5688 C.ar    1  UNL1        0.0114
     11 C         142.9611  143.5920  158.6970 C.ar    1  UNL1        0.0574
     12 CL        144.2471  142.8467  158.4952 Cl      1  UNL1       -0.0823
     13 C         142.2689  143.5471  160.0269 C.ar    1  UNL1        0.0072
     14 N         139.3638  141.3399  164.8658 N.ar    1  UNL1       -0.2186
     15 N         140.0673  141.4559  166.1856 N.ar    1  UNL1       -0.1668
     16 C         139.7583  140.4866  167.2879 C.ar    1  UNL1        0.1026
     17 C         138.7459  139.4015  167.0706 C.ar    1  UNL1        0.0258
     18 C         138.0424  139.2854  165.7508 C.ar    1  UNL1        0.0638
     19 C         138.3514  140.2547  164.6485 C.ar    1  UNL1        0.2764
     20 O         137.6479  140.1386  163.3288 O.2     1  UNL1       -0.2655
     21 C         140.4618  140.6027  168.6077 C.ar    1  UNL1        0.0385
     22 C         141.8985  140.1895  168.7306 C.ar    1  UNL1        0.0047
     23 C         142.6021  140.3056  170.0503 C.ar    1  UNL1        0.0207
     24 C         141.8688  140.8348  171.2470 C.ar    1  UNL1        0.0989
     25 N         140.4321  141.2479  171.1241 N.ar    1  UNL1       -0.2423
     26 C         139.7285  141.1318  169.8044 C.ar    1  UNL1        0.1004
     27 N         140.1714  146.7471  162.2565 N.3     1  UNL1       -0.3209
     28 C         140.0718  145.6873  161.1998 C.3     1  UNL1        0.0691
     29 H         139.9951  147.6610  161.8391 H       1  UNL1        0.1189
     30 H         141.1063  146.7342  162.6641 H       1  UNL1        0.1189
@<TRIPOS>BOND
     1    27    28    1
     2     1    28    1
     3     1     7    1
     4     7     8   ar
     5     8     9   ar
     6     9    10   ar
     7    10    11   ar
     8    11    12    1
     9    11    13   ar
    10     1     2    1
    11     2     3    1
    12     3     4    1
    13     4    14    1
    14    14    15   ar
    15    15    16   ar
    16    16    21    1
    17    21    22   ar
    18    22    23   ar
    19    23    24   ar
    20    24    25   ar
    21    25    26   ar
    22    16    17   ar
    23    17    18   ar
    24    18    19   ar
    25    19    20    2
    26     4     5    1
    27     5     6    1
    28     6     1    1
    29    13     7   ar
    30    19    14   ar
    31    26    21   ar
    32    27    29    1
    33    27    30    1
@<TRIPOS>MOLECULE
*****
 30 33 0 0 0
SMALL
GASTEIGER

@<TRIPOS>ATOM
      1 C         140.5534  140.4664  166.1927 C.3     1  UNL1        0.0333
      2 C         139.4634  141.4440  165.8670 C.3     1  UNL1        0.0074
      3 C         139.0669  141.6770  164.4392 C.3     1  UNL1        0.0248
      4 C         139.7605  140.9324  163.3371 C.3     1  UNL1        0.1084
      5 C         140.8505  139.9548  163.6628 C.3     1  UNL1        0.0248
      6 C         141.2470  139.7218  165.0906 C.3     1  UNL1        0.0074
      7 C         140.1951  140.9270  167.5746 C.ar    1  UNL1       -0.0207
      8 C         139.4471  140.0132  168.4993 C.ar    1  UNL1       -0.0042
      9 C         139.0889  140.4738  169.8812 C.ar    1  UNL1        0.0005
     10 C         139.4787  141.8483  170.3382 C.ar    1  UNL1        0.0114
     11 C         140.2268  142.7621  169.4134 C.ar    1  UNL1        0.0574
     12 CL        140.6167  144.1365  169.8704 Cl      1  UNL1       -0.0823
     13 C         140.5850  142.3014  168.0316 C.ar    1  UNL1        0.0072
     14 N         139.3641  141.1655  161.9094 N.ar    1  UNL1       -0.2186
     15 N         139.9791  142.2933  161.1347 N.ar    1  UNL1       -0.1668
     16 C         139.5825  142.5262  159.7069 C.ar    1  UNL1        0.1026
     17 C         138.5712  141.6316  159.0538 C.ar    1  UNL1        0.0258
     18 C         137.9562  140.5038  159.8285 C.ar    1  UNL1        0.0638
     19 C         138.3527  140.2708  161.2562 C.ar    1  UNL1        0.2764
     20 O         137.7378  139.1430  162.0308 O.2     1  UNL1       -0.2655
     21 C         140.1975  143.6540  158.9323 C.ar    1  UNL1        0.0385
     22 C         139.6767  143.9988  157.5686 C.ar    1  UNL1        0.0047
     23 C         140.2917  145.1266  156.7939 C.ar    1  UNL1        0.0207
     24 C         141.4274  145.9095  157.3832 C.ar    1  UNL1        0.0989
     25 N         141.9482  145.5647  158.7469 N.ar    1  UNL1       -0.2423
     26 C         141.3332  144.4369  159.5216 C.ar    1  UNL1        0.1004
     27 N         142.9499  139.5339  166.5632 N.3     1  UNL1       -0.3209
     28 C         141.5190  139.6487  166.9983 C.3     1  UNL1        0.0691
     29 H         143.4594  138.9451  167.2221 H       1  UNL1        0.1189
     30 H         143.3732  140.4616  166.5386 H       1  UNL1        0.1189
@<TRIPOS>BOND
     1    27    28    1
     2     1    28    1
     3     1     7    1
     4     7     8   ar
     5     8     9   ar
     6     9    10   ar
     7    10    11   ar
     8    11    12    1
     9    11    13   ar
    10     1     2    1
    11     2     3    1
    12     3     4    1
    13     4    14    1
    14    14    15   ar
    15    15    16   ar
    16    16    21    1
    17    21    22   ar
    18    22    23   ar
    19    23    24   ar
    20    24    25   ar
    21    25    26   ar
    22    16    17   ar
    23    17    18   ar
    24    18    19   ar
    25    19    20    2
    26     4     5    1
    27     5     6    1
    28     6     1    1
    29    13     7   ar
    30    19    14   ar
    31    26    21   ar
    32    27    29    1
    33    27    30    1
@<TRIPOS>MOLECULE
*****
 30 33 0 0 0
SMALL
GASTEIGER

@<TRIPOS>ATOM
      1 C         140.7873  141.2199  166.0342 C.3     1  UNL1        0.0333
      2 C         140.0349  142.5066  165.8665 C.3     1  UNL1        0.0074
      3 C         139.8985  143.1239  164.5062 C.3     1  UNL1        0.0248
      4 C         140.5146  142.4543  163.3136 C.3     1  UNL1        0.1084
      5 C         141.2669  141.1676  163.4813 C.3     1  UNL1        0.0248
      6 C         141.4033  140.5503  164.8416 C.3     1  UNL1        0.0074
      7 C         140.3840  141.4730  167.4567 C.ar    1  UNL1       -0.0207
      8 C         139.7245  140.3870  168.2539 C.ar    1  UNL1       -0.0042
      9 C         139.3212  140.6402  169.6762 C.ar    1  UNL1        0.0005
     10 C         139.5773  141.9794  170.3014 C.ar    1  UNL1        0.0114
     11 C         140.2368  143.0655  169.5042 C.ar    1  UNL1        0.0574
     12 CL        140.4929  144.4047  170.1294 Cl      1  UNL1       -0.0823
     13 C         140.6401  142.8123  168.0818 C.ar    1  UNL1        0.0072
     14 N         140.3782  143.0716  161.9533 N.ar    1  UNL1       -0.2186
     15 N         139.5237  142.4111  160.9123 N.ar    1  UNL1       -0.1668
     16 C         139.3874  143.0285  159.5519 C.ar    1  UNL1        0.1026
     17 C         140.1054  144.3062  159.2328 C.ar    1  UNL1        0.0258
     18 C         140.9598  144.9666  160.2739 C.ar    1  UNL1        0.0638
     19 C         141.0961  144.3493  161.6341 C.ar    1  UNL1        0.2764
     20 O         141.9506  145.0098  162.6752 O.2     1  UNL1       -0.2655
     21 C         138.5330  142.3681  158.5109 C.ar    1  UNL1        0.0385
     22 C         138.2057  143.0928  157.2391 C.ar    1  UNL1        0.0047
     23 C         137.3512  142.4323  156.1980 C.ar    1  UNL1        0.0207
     24 C         136.8242  141.0471  156.4289 C.ar    1  UNL1        0.0989
     25 N         137.1515  140.3223  157.7007 N.ar    1  UNL1       -0.2423
     26 C         138.0059  140.9828  158.7418 C.ar    1  UNL1        0.1004
     27 N         142.8525  139.7107  166.4894 N.3     1  UNL1       -0.3209
     28 C         141.3996  140.0210  166.6959 C.3     1  UNL1        0.0691
     29 H         143.0973  138.8677  167.0089 H       1  UNL1        0.1189
     30 H         143.4177  140.4916  166.8227 H       1  UNL1        0.1189
@<TRIPOS>BOND
     1    27    28    1
     2     1    28    1
     3     1     7    1
     4     7     8   ar
     5     8     9   ar
     6     9    10   ar
     7    10    11   ar
     8    11    12    1
     9    11    13   ar
    10     1     2    1
    11     2     3    1
    12     3     4    1
    13     4    14    1
    14    14    15   ar
    15    15    16   ar
    16    16    21    1
    17    21    22   ar
    18    22    23   ar
    19    23    24   ar
    20    24    25   ar
    21    25    26   ar
    22    16    17   ar
    23    17    18   ar
    24    18    19   ar
    25    19    20    2
    26     4     5    1
    27     5     6    1
    28     6     1    1
    29    13     7   ar
    30    19    14   ar
    31    26    21   ar
    32    27    29    1
    33    27    30    1
@<TRIPOS>MOLECULE
*****
 30 33 0 0 0
SMALL
GASTEIGER

@<TRIPOS>ATOM
      1 C         139.5857  143.3000  164.4602 C.3     1  UNL1        0.0333
      2 C         139.7768  142.0654  163.6300 C.3     1  UNL1        0.0074
      3 C         139.7983  142.1639  162.1334 C.3     1  UNL1        0.0248
      4 C         139.6287  143.4970  161.4670 C.3     1  UNL1        0.1084
      5 C         139.4376  144.7316  162.2971 C.3     1  UNL1        0.0248
      6 C         139.4161  144.6331  163.7938 C.3     1  UNL1        0.0074
      7 C         139.7031  142.2716  165.5459 C.ar    1  UNL1       -0.0207
      8 C         140.6470  142.4936  166.6903 C.ar    1  UNL1       -0.0042
      9 C         140.7643  141.4653  167.7760 C.ar    1  UNL1        0.0005
     10 C         139.9379  140.2149  167.7172 C.ar    1  UNL1        0.0114
     11 C         138.9941  139.9928  166.5727 C.ar    1  UNL1        0.0574
     12 CL        138.1676  138.7424  166.5139 Cl      1  UNL1       -0.0823
     13 C         138.8767  141.0212  165.4871 C.ar    1  UNL1        0.0072
     14 N         139.6501  143.5955  159.9704 N.ar    1  UNL1       -0.2186
     15 N         138.5608  142.9565  159.1610 N.ar    1  UNL1       -0.1668
     16 C         138.5823  143.0550  157.6643 C.ar    1  UNL1        0.1026
     17 C         139.6931  143.7924  156.9772 C.ar    1  UNL1        0.0258
     18 C         140.7824  144.4314  157.7865 C.ar    1  UNL1        0.0638
     19 C         140.7609  144.3329  159.2831 C.ar    1  UNL1        0.2764
     20 O         141.8502  144.9719  160.0925 O.2     1  UNL1       -0.2655
     21 C         137.4930  142.4160  156.8549 C.ar    1  UNL1        0.0385
     22 C         136.9147  143.1374  155.6738 C.ar    1  UNL1        0.0047
     23 C         135.8253  142.4984  154.8644 C.ar    1  UNL1        0.0207
     24 C         135.3144  141.1380  155.2363 C.ar    1  UNL1        0.0989
     25 N         135.8927  140.4167  156.4175 N.ar    1  UNL1       -0.2423
     26 C         136.9820  141.0557  157.2268 C.ar    1  UNL1        0.1004
     27 N         138.3530  145.2149  165.7105 N.3     1  UNL1       -0.3209
     28 C         139.4354  144.1774  165.6674 C.3     1  UNL1        0.0691
     29 H         138.3970  145.7156  166.5980 H       1  UNL1        0.1189
     30 H         137.4437  144.7615  165.6206 H       1  UNL1        0.1189
@<TRIPOS>BOND
     1    27    28    1
     2     1    28    1
     3     1     7    1
     4     7     8   ar
     5     8     9   ar
     6     9    10   ar
     7    10    11   ar
     8    11    12    1
     9    11    13   ar
    10     1     2    1
    11     2     3    1
    12     3     4    1
    13     4    14    1
    14    14    15   ar
    15    15    16   ar
    16    16    21    1
    17    21    22   ar
    18    22    23   ar
    19    23    24   ar
    20    24    25   ar
    21    25    26   ar
    22    16    17   ar
    23    17    18   ar
    24    18    19   ar
    25    19    20    2
    26     4     5    1
    27     5     6    1
    28     6     1    1
    29    13     7   ar
    30    19    14   ar
    31    26    21   ar
    32    27    29    1
    33    27    30    1
@<TRIPOS>MOLECULE
*****
 30 33 0 0 0
SMALL
GASTEIGER

@<TRIPOS>ATOM
      1 C         139.9647  140.8986  166.7043 C.3     1  UNL1        0.0333
      2 C         140.8850  142.0820  166.7544 C.3     1  UNL1        0.0074
      3 C         141.0459  142.9587  165.5480 C.3     1  UNL1        0.0248
      4 C         140.2864  142.6519  164.2913 C.3     1  UNL1        0.1084
      5 C         139.3660  141.4686  164.2412 C.3     1  UNL1        0.0248
      6 C         139.2051  140.5919  165.4476 C.3     1  UNL1        0.0074
      7 C         140.4649  140.7800  168.1135 C.ar    1  UNL1       -0.0207
      8 C         140.0644  141.7981  169.1396 C.ar    1  UNL1       -0.0042
      9 C         140.5646  141.6794  170.5488 C.ar    1  UNL1        0.0005
     10 C         141.4653  140.5427  170.9317 C.ar    1  UNL1        0.0114
     11 C         141.8658  139.5246  169.9055 C.ar    1  UNL1        0.0574
     12 CL        142.7665  138.3879  170.2884 Cl      1  UNL1       -0.0823
     13 C         141.3656  139.6433  168.4964 C.ar    1  UNL1        0.0072
     14 N         140.4472  143.5286  163.0849 N.ar    1  UNL1       -0.2186
     15 N         141.3579  143.1093  161.9691 N.ar    1  UNL1       -0.1668
     16 C         141.5187  143.9861  160.7626 C.ar    1  UNL1        0.1026
     17 C         140.7690  145.2820  160.6720 C.ar    1  UNL1        0.0258
     18 C         139.8583  145.7014  161.7878 C.ar    1  UNL1        0.0638
     19 C         139.6975  144.8246  162.9942 C.ar    1  UNL1        0.2764
     20 O         138.7868  145.2440  164.1100 O.2     1  UNL1       -0.2655
     21 C         142.4293  143.5668  159.6468 C.ar    1  UNL1        0.0385
     22 C         143.6538  142.7528  159.9438 C.ar    1  UNL1        0.0047
     23 C         144.5644  142.3335  158.8280 C.ar    1  UNL1        0.0207
     24 C         144.2505  142.7282  157.4153 C.ar    1  UNL1        0.0989
     25 N         143.0261  143.5421  157.1184 N.ar    1  UNL1       -0.2423
     26 C         142.1154  143.9615  158.2342 C.ar    1  UNL1        0.1004
     27 N         138.0655  139.1659  166.3290 N.3     1  UNL1       -0.3209
     28 C         139.2180  139.6740  167.1435 C.3     1  UNL1        0.0691
     29 H         137.6781  138.3323  166.7711 H       1  UNL1        0.1189
     30 H         138.3890  138.9336  165.3900 H       1  UNL1        0.1189
@<TRIPOS>BOND
     1    27    28    1
     2     1    28    1
     3     1     7    1
     4     7     8   ar
     5     8     9   ar
     6     9    10   ar
     7    10    11   ar
     8    11    12    1
     9    11    13   ar
    10     1     2    1
    11     2     3    1
    12     3     4    1
    13     4    14    1
    14    14    15   ar
    15    15    16   ar
    16    16    21    1
    17    21    22   ar
    18    22    23   ar
    19    23    24   ar
    20    24    25   ar
    21    25    26   ar
    22    16    17   ar
    23    17    18   ar
    24    18    19   ar
    25    19    20    2
    26     4     5    1
    27     5     6    1
    28     6     1    1
    29    13     7   ar
    30    19    14   ar
    31    26    21   ar
    32    27    29    1
    33    27    30    1
@<TRIPOS>MOLECULE
*****
 30 33 0 0 0
SMALL
GASTEIGER

@<TRIPOS>ATOM
      1 C         142.3659  136.3563  155.8947 C.3     1  UNL1        0.0333
      2 C         140.8762  136.3302  155.7213 C.3     1  UNL1        0.0074
      3 C         140.0038  137.1753  156.6015 C.3     1  UNL1        0.0248
      4 C         140.6211  138.0465  157.6550 C.3     1  UNL1        0.1084
      5 C         142.1108  138.0727  157.8284 C.3     1  UNL1        0.0248
      6 C         142.9832  137.2276  156.9483 C.3     1  UNL1        0.0074
      7 C         142.2523  135.3759  154.7651 C.ar    1  UNL1       -0.0207
      8 C         141.7663  135.8326  153.4216 C.ar    1  UNL1       -0.0042
      9 C         141.6528  134.8522  152.2921 C.ar    1  UNL1        0.0005
     10 C         142.0251  133.4150  152.5061 C.ar    1  UNL1        0.0114
     11 C         142.5111  132.9583  153.8497 C.ar    1  UNL1        0.0574
     12 CL        142.8834  131.5211  154.0637 Cl      1  UNL1       -0.0823
     13 C         142.6246  133.9387  154.9792 C.ar    1  UNL1        0.0072
     14 N         139.7487  138.8916  158.5351 N.ar    1  UNL1       -0.2186
     15 N         139.6695  138.6091  160.0062 N.ar    1  UNL1       -0.1668
     16 C         138.7970  139.4543  160.8863 C.ar    1  UNL1        0.1026
     17 C         138.0038  140.5818  160.2954 C.ar    1  UNL1        0.0258
     18 C         138.0829  140.8644  158.8243 C.ar    1  UNL1        0.0638
     19 C         138.9553  140.0192  157.9443 C.ar    1  UNL1        0.2764
     20 O         139.0345  140.3017  156.4732 O.2     1  UNL1       -0.2655
     21 C         138.7179  139.1718  162.3574 C.ar    1  UNL1        0.0385
     22 C         138.2770  140.2476  163.3050 C.ar    1  UNL1        0.0047
     23 C         138.1979  139.9651  164.7761 C.ar    1  UNL1        0.0207
     24 C         138.5597  138.6067  165.2993 C.ar    1  UNL1        0.0989
     25 N         139.0007  137.5309  164.3517 N.ar    1  UNL1       -0.2423
     26 C         139.0798  137.8134  162.8806 C.ar    1  UNL1        0.1004
     27 N         144.7812  137.1427  155.3488 N.3     1  UNL1       -0.3209
     28 C         143.8162  136.0419  155.6758 C.3     1  UNL1        0.0691
     29 H         145.7163  136.7520  155.2337 H       1  UNL1        0.1189
     30 H         144.7886  137.8247  156.1072 H       1  UNL1        0.1189
@<TRIPOS>BOND
     1    27    28    1
     2     1    28    1
     3     1     7    1
     4     7     8   ar
     5     8     9   ar
     6     9    10   ar
     7    10    11   ar
     8    11    12    1
     9    11    13   ar
    10     1     2    1
    11     2     3    1
    12     3     4    1
    13     4    14    1
    14    14    15   ar
    15    15    16   ar
    16    16    21    1
    17    21    22   ar
    18    22    23   ar
    19    23    24   ar
    20    24    25   ar
    21    25    26   ar
    22    16    17   ar
    23    17    18   ar
    24    18    19   ar
    25    19    20    2
    26     4     5    1
    27     5     6    1
    28     6     1    1
    29    13     7   ar
    30    19    14   ar
    31    26    21   ar
    32    27    29    1
    33    27    30    1
@<TRIPOS>MOLECULE
*****
 30 33 0 0 0
SMALL
GASTEIGER

@<TRIPOS>ATOM
      1 C         139.1878  145.8882  155.9696 C.3     1  UNL1        0.0333
      2 C         138.0631  145.9033  154.9773 C.3     1  UNL1        0.0074
      3 C         137.3445  144.6309  154.6387 C.3     1  UNL1        0.0248
      4 C         137.7508  143.3433  155.2924 C.3     1  UNL1        0.1084
      5 C         138.8755  143.3283  156.2847 C.3     1  UNL1        0.0248
      6 C         139.5941  144.6007  156.6233 C.3     1  UNL1        0.0074
      7 C         139.1701  147.3464  155.6181 C.ar    1  UNL1       -0.0207
      8 C         138.5628  148.3387  156.5648 C.ar    1  UNL1       -0.0042
      9 C         138.5451  149.7968  156.2133 C.ar    1  UNL1        0.0005
     10 C         139.1347  150.2626  154.9151 C.ar    1  UNL1        0.0114
     11 C         139.7419  149.2702  153.9683 C.ar    1  UNL1        0.0574
     12 CL        140.3315  149.7359  152.6700 Cl      1  UNL1       -0.0823
     13 C         139.7596  147.8121  154.3198 C.ar    1  UNL1        0.0072
     14 N         137.0323  142.0709  154.9538 N.ar    1  UNL1       -0.2186
     15 N         135.6549  141.8212  155.4928 N.ar    1  UNL1       -0.1668
     16 C         134.9364  140.5487  155.1542 C.ar    1  UNL1        0.1026
     17 C         135.5952  139.5261  154.2766 C.ar    1  UNL1        0.0258
     18 C         136.9726  139.7759  153.7376 C.ar    1  UNL1        0.0638
     19 C         137.6910  141.0483  154.0763 C.ar    1  UNL1        0.2764
     20 O         139.0684  141.2980  153.5373 O.2     1  UNL1       -0.2655
     21 C         133.5590  140.2989  155.6932 C.ar    1  UNL1        0.0385
     22 C         133.2757  139.0533  156.4794 C.ar    1  UNL1        0.0047
     23 C         131.8983  138.8036  157.0184 C.ar    1  UNL1        0.0207
     24 C         130.8043  139.7995  156.7711 C.ar    1  UNL1        0.0989
     25 N         131.0875  141.0451  155.9849 N.ar    1  UNL1       -0.2423
     26 C         132.4649  141.2949  155.4459 C.ar    1  UNL1        0.1004
     27 N         140.4818  145.8228  158.2215 N.3     1  UNL1       -0.3209
     28 C         140.3065  146.3796  156.8398 C.3     1  UNL1        0.0691
     29 H         141.2847  146.2664  158.6675 H       1  UNL1        0.1189
     30 H         140.6372  144.8163  158.1653 H       1  UNL1        0.1189
@<TRIPOS>BOND
     1    27    28    1
     2     1    28    1
     3     1     7    1
     4     7     8   ar
     5     8     9   ar
     6     9    10   ar
     7    10    11   ar
     8    11    12    1
     9    11    13   ar
    10     1     2    1
    11     2     3    1
    12     3     4    1
    13     4    14    1
    14    14    15   ar
    15    15    16   ar
    16    16    21    1
    17    21    22   ar
    18    22    23   ar
    19    23    24   ar
    20    24    25   ar
    21    25    26   ar
    22    16    17   ar
    23    17    18   ar
    24    18    19   ar
    25    19    20    2
    26     4     5    1
    27     5     6    1
    28     6     1    1
    29    13     7   ar
    30    19    14   ar
    31    26    21   ar
    32    27    29    1
    33    27    30    1
