@<TRIPOS>MOLECULE
*****
 35 37 0 0 0
SMALL
GASTEIGER

@<TRIPOS>ATOM
      1 C         138.7618  139.1853  160.1820 C.ar    1  UNL1        0.1387
      2 C         137.9543  140.2141  160.9165 C.ar    1  UNL1        0.0383
      3 C         137.8467  140.1558  162.4115 C.ar    1  UNL1        0.0233
      4 C         138.5467  139.0687  163.1720 C.ar    1  UNL1        0.1255
      5 C         139.3541  138.0399  162.4375 C.ar    1  UNL1        0.0233
      6 C         139.4617  138.0982  160.9425 C.ar    1  UNL1        0.0383
      7 S         138.4391  139.0104  164.6670 S.O2    1  UNL1        0.0768
      8 O         137.7327  140.3337  164.6678 O.2     1  UNL1       -0.1498
      9 O         139.1455  137.6872  164.6662 O.2     1  UNL1       -0.1498
     10 N         138.3316  138.9522  166.1620 N.am    1  UNL1       -0.1690
     11 C         139.2885  139.7323  167.0138 C.2     1  UNL1        0.3231
     12 O         140.3530  140.5708  166.3706 O.2     1  UNL1       -0.2509
     13 N         139.1809  139.6740  168.5088 N.am    1  UNL1       -0.2671
     14 H         137.6329  138.4018  166.5841 H       1  UNL1        0.1781
     15 H         138.4822  139.1237  168.9310 H       1  UNL1        0.1565
     16 C         140.1379  140.4542  169.3606 C.ar    1  UNL1        0.0516
     17 C         139.8914  141.9100  169.6249 C.ar    1  UNL1        0.0147
     18 C         140.8484  142.6901  170.4766 C.ar    1  UNL1        0.0013
     19 C         142.0519  142.0145  171.0642 C.ar    1  UNL1        0.0001
     20 C         142.2984  140.5586  170.7999 C.ar    1  UNL1        0.0013
     21 C         141.3414  139.7785  169.9481 C.ar    1  UNL1        0.0147
     22 O         138.8694  139.2435  158.6869 O.3     1  UNL1       -0.4740
     23 C         140.1256  138.7857  158.0070 C.3     1  UNL1        0.2226
     24 C         141.3261  139.6840  157.9657 C.3     1  UNL1        0.1200
     25 C         143.8423  140.2482  161.6535 C.3     1  UNL1        0.1018
     26 C         144.0664  139.0588  160.7675 C.3     1  UNL1        0.0285
     27 C         143.2276  138.8707  159.5382 C.3     1  UNL1        0.0728
     28 N         142.1649  139.8720  159.1949 N.3     1  UNL1       -0.2695
     29 C         141.9408  141.0614  160.0810 C.3     1  UNL1        0.0728
     30 C         142.7796  141.2495  161.3103 C.3     1  UNL1        0.0285
     31 C         144.6811  140.4362  162.8828 C.2     1  UNL1        0.3165
     32 O         145.8111  141.4226  162.8761 O.2     1  UNL1       -0.2501
     33 O         144.3898  139.6379  164.1188 O.3     1  UNL1       -0.4485
     34 C         142.7256  138.2378  165.5402 C.3     1  UNL1        0.0513
     35 C         143.0952  138.8902  164.2410 C.3     1  UNL1        0.2086
@<TRIPOS>BOND
     1    34    35    1
     2    35    33    1
     3    33    31    1
     4    31    32    2
     5    31    25    1
     6    25    26    1
     7    26    27    1
     8    27    28    1
     9    28    24    1
    10    24    23    1
    11    23    22    1
    12    22     1    1
    13     1     2   ar
    14     2     3   ar
    15     3     4   ar
    16     4     7    1
    17     7     8    2
    18     7     9    2
    19     7    10    1
    20    10    11   am
    21    11    12    2
    22    11    13   am
    23    13    16    1
    24    16    17   ar
    25    17    18   ar
    26    18    19   ar
    27    19    20   ar
    28    20    21   ar
    29     4     5   ar
    30     5     6   ar
    31    28    29    1
    32    29    30    1
    33    30    25    1
    34     6     1   ar
    35    21    16   ar
    36    10    14    1
    37    13    15    1
@<TRIPOS>MOLECULE
*****
 35 37 0 0 0
SMALL
GASTEIGER

@<TRIPOS>ATOM
      1 C         138.8587  139.1880  160.1144 C.ar    1  UNL1        0.1387
      2 C         137.9851  140.1851  160.8162 C.ar    1  UNL1        0.0383
      3 C         137.8344  140.1317  162.3077 C.ar    1  UNL1        0.0233
      4 C         138.5573  139.0810  163.0974 C.ar    1  UNL1        0.1255
      5 C         139.4309  138.0839  162.3955 C.ar    1  UNL1        0.0233
      6 C         139.5816  138.1374  160.9041 C.ar    1  UNL1        0.0383
      7 S         138.4067  139.0275  164.5888 S.O2    1  UNL1        0.0768
      8 O         138.9426  137.6266  164.5927 O.2     1  UNL1       -0.1498
      9 O         137.8707  140.4285  164.5849 O.2     1  UNL1       -0.1498
     10 N         138.2560  138.9740  166.0802 N.am    1  UNL1       -0.1690
     11 C         139.2396  139.6876  166.9595 C.2     1  UNL1        0.3231
     12 O         140.3739  140.4548  166.3474 O.2     1  UNL1       -0.2509
     13 N         139.0889  139.6341  168.4510 N.am    1  UNL1       -0.2671
     14 H         137.5115  138.4705  166.4820 H       1  UNL1        0.1781
     15 H         138.3444  139.1306  168.8528 H       1  UNL1        0.1565
     16 C         140.0725  140.3478  169.3303 C.ar    1  UNL1        0.0516
     17 C         141.3473  139.6686  169.7350 C.ar    1  UNL1        0.0147
     18 C         142.3309  140.3823  170.6143 C.ar    1  UNL1        0.0013
     19 C         142.0398  141.7751  171.0889 C.ar    1  UNL1        0.0001
     20 C         140.7650  142.4543  170.6842 C.ar    1  UNL1        0.0013
     21 C         139.7814  141.7406  169.8049 C.ar    1  UNL1        0.0147
     22 O         139.0094  139.2415  158.6229 O.3     1  UNL1       -0.4740
     23 C         140.3766  139.2230  158.0062 C.3     1  UNL1        0.2226
     24 C         141.2531  140.4374  158.0886 C.3     1  UNL1        0.1200
     25 C         140.2861  143.7157  161.0157 C.3     1  UNL1        0.1018
     26 C         141.2540  142.6340  161.3939 C.3     1  UNL1        0.0285
     27 C         141.5764  141.5413  160.4182 C.3     1  UNL1        0.0728
     28 N         140.9308  141.5301  159.0643 N.3     1  UNL1       -0.2695
     29 C         139.9628  142.6118  158.6862 C.3     1  UNL1        0.0728
     30 C         139.6404  143.7045  159.6619 C.3     1  UNL1        0.0285
     31 C         139.9637  144.8084  161.9914 C.2     1  UNL1        0.3165
     32 O         141.0702  145.5295  162.7024 O.2     1  UNL1       -0.2501
     33 O         138.5348  145.1801  162.2561 O.3     1  UNL1       -0.4485
     34 C         138.2220  143.8616  164.4728 C.3     1  UNL1        0.0513
     35 C         137.6890  144.3201  163.1478 C.3     1  UNL1        0.2086
@<TRIPOS>BOND
     1    34    35    1
     2    35    33    1
     3    33    31    1
     4    31    32    2
     5    31    25    1
     6    25    26    1
     7    26    27    1
     8    27    28    1
     9    28    24    1
    10    24    23    1
    11    23    22    1
    12    22     1    1
    13     1     2   ar
    14     2     3   ar
    15     3     4   ar
    16     4     7    1
    17     7     8    2
    18     7     9    2
    19     7    10    1
    20    10    11   am
    21    11    12    2
    22    11    13   am
    23    13    16    1
    24    16    17   ar
    25    17    18   ar
    26    18    19   ar
    27    19    20   ar
    28    20    21   ar
    29     4     5   ar
    30     5     6   ar
    31    28    29    1
    32    29    30    1
    33    30    25    1
    34     6     1   ar
    35    21    16   ar
    36    10    14    1
    37    13    15    1
@<TRIPOS>MOLECULE
*****
 35 37 0 0 0
SMALL
GASTEIGER

@<TRIPOS>ATOM
      1 C         143.6354  139.1769  159.8863 C.ar    1  UNL1        0.1387
      2 C         144.1742  140.3435  160.6600 C.ar    1  UNL1        0.0383
      3 C         144.1506  140.3240  162.1598 C.ar    1  UNL1        0.0233
      4 C         143.5882  139.1379  162.8857 C.ar    1  UNL1        0.1255
      5 C         143.0494  137.9713  162.1118 C.ar    1  UNL1        0.0233
      6 C         143.0730  137.9908  160.6122 C.ar    1  UNL1        0.0383
      7 S         143.5647  139.1184  164.3853 S.O2    1  UNL1        0.0768
      8 O         144.7330  140.0587  164.4159 O.2     1  UNL1       -0.1498
      9 O         142.3964  138.1782  164.3547 O.2     1  UNL1       -0.1498
     10 N         143.5411  139.0989  165.8850 N.am    1  UNL1       -0.1690
     11 C         142.6374  140.0336  166.6331 C.2     1  UNL1        0.3231
     12 O         141.7572  140.9877  165.8816 O.2     1  UNL1       -0.2509
     13 N         142.6139  140.0140  168.1329 N.am    1  UNL1       -0.2671
     14 H         144.1188  138.4727  166.3783 H       1  UNL1        0.1781
     15 H         143.1916  139.3878  168.6261 H       1  UNL1        0.1565
     16 C         141.7101  140.9487  168.8810 C.ar    1  UNL1        0.0516
     17 C         140.3633  140.4788  169.3448 C.ar    1  UNL1        0.0147
     18 C         139.4595  141.4135  170.0929 C.ar    1  UNL1        0.0013
     19 C         139.9027  142.8180  170.3772 C.ar    1  UNL1        0.0001
     20 C         141.2496  143.2879  169.9135 C.ar    1  UNL1        0.0013
     21 C         142.1533  142.3533  169.1653 C.ar    1  UNL1        0.0147
     22 O         143.6589  139.1964  158.3865 O.3     1  UNL1       -0.4740
     23 C         142.4254  138.8370  157.6124 C.3     1  UNL1        0.2226
     24 C         141.2253  139.7358  157.6541 C.3     1  UNL1        0.1200
     25 C         138.8700  140.1691  161.4639 C.3     1  UNL1        0.1018
     26 C         138.7815  138.9011  160.6676 C.3     1  UNL1        0.0285
     27 C         139.5666  138.7566  159.3976 C.3     1  UNL1        0.0728
     28 N         140.4402  139.8802  158.9240 N.3     1  UNL1       -0.2695
     29 C         140.5286  141.1483  159.7204 C.3     1  UNL1        0.0728
     30 C         139.7435  141.2927  160.9903 C.3     1  UNL1        0.0285
     31 C         138.0849  140.3135  162.7338 C.2     1  UNL1        0.3165
     32 O         137.0250  141.3692  162.8444 O.2     1  UNL1       -0.2501
     33 O         138.3596  139.4023  163.8932 O.3     1  UNL1       -0.4485
     34 C         138.0429  138.9737  166.4361 C.3     1  UNL1        0.0513
     35 C         138.2632  139.9238  165.2963 C.3     1  UNL1        0.2086
@<TRIPOS>BOND
     1    34    35    1
     2    35    33    1
     3    33    31    1
     4    31    32    2
     5    31    25    1
     6    25    26    1
     7    26    27    1
     8    27    28    1
     9    28    24    1
    10    24    23    1
    11    23    22    1
    12    22     1    1
    13     1     2   ar
    14     2     3   ar
    15     3     4   ar
    16     4     7    1
    17     7     8    2
    18     7     9    2
    19     7    10    1
    20    10    11   am
    21    11    12    2
    22    11    13   am
    23    13    16    1
    24    16    17   ar
    25    17    18   ar
    26    18    19   ar
    27    19    20   ar
    28    20    21   ar
    29     4     5   ar
    30     5     6   ar
    31    28    29    1
    32    29    30    1
    33    30    25    1
    34     6     1   ar
    35    21    16   ar
    36    10    14    1
    37    13    15    1
@<TRIPOS>MOLECULE
*****
 35 37 0 0 0
SMALL
GASTEIGER

@<TRIPOS>ATOM
      1 C         143.5993  139.1349  159.8422 C.ar    1  UNL1        0.1387
      2 C         144.0946  140.3321  160.5980 C.ar    1  UNL1        0.0383
      3 C         144.0853  140.3287  162.0980 C.ar    1  UNL1        0.0233
      4 C         143.5805  139.1281  162.8421 C.ar    1  UNL1        0.1255
      5 C         143.0851  137.9309  162.0862 C.ar    1  UNL1        0.0233
      6 C         143.0945  137.9343  160.5863 C.ar    1  UNL1        0.0383
      7 S         143.5711  139.1246  164.3421 S.O2    1  UNL1        0.0768
      8 O         142.4285  138.1528  164.3327 O.2     1  UNL1       -0.1498
      9 O         144.7136  140.0964  164.3515 O.2     1  UNL1       -0.1498
     10 N         143.5617  139.1212  165.8420 N.am    1  UNL1       -0.1690
     11 C         142.6579  140.0571  166.5885 C.2     1  UNL1        0.3231
     12 O         141.7635  140.9964  165.8351 O.2     1  UNL1       -0.2509
     13 N         142.6485  140.0536  168.0886 N.am    1  UNL1       -0.2671
     14 H         144.1487  138.5047  166.3365 H       1  UNL1        0.1781
     15 H         143.2356  139.4371  168.5831 H       1  UNL1        0.1565
     16 C         141.7448  140.9895  168.8351 C.ar    1  UNL1        0.0516
     17 C         142.1782  142.4014  169.0966 C.ar    1  UNL1        0.0147
     18 C         141.2744  143.3373  169.8432 C.ar    1  UNL1        0.0013
     19 C         139.9372  142.8612  170.3281 C.ar    1  UNL1        0.0001
     20 C         139.5037  141.4492  170.0666 C.ar    1  UNL1        0.0013
     21 C         140.4075  140.5133  169.3200 C.ar    1  UNL1        0.0147
     22 O         143.6086  139.1384  158.3422 O.3     1  UNL1       -0.4740
     23 C         142.6855  140.0493  157.5885 C.3     1  UNL1        0.2226
     24 C         141.2044  139.8159  157.6279 C.3     1  UNL1        0.1200
     25 C         138.7052  141.7560  160.8279 C.3     1  UNL1        0.1018
     26 C         138.2221  140.5062  160.1536 C.3     1  UNL1        0.0285
     27 C         139.0552  139.8595  159.0870 C.3     1  UNL1        0.0728
     28 N         140.3713  140.4626  158.6945 N.3     1  UNL1       -0.2695
     29 C         140.8544  141.7124  159.3688 C.3     1  UNL1        0.0728
     30 C         140.0213  142.3590  160.4355 C.3     1  UNL1        0.0285
     31 C         137.8721  142.4027  161.8946 C.2     1  UNL1        0.3165
     32 O         137.0207  141.5586  162.7960 O.2     1  UNL1       -0.2501
     33 O         137.8906  143.8934  162.0599 O.3     1  UNL1       -0.4485
     34 C         139.8527  145.3093  163.0061 C.3     1  UNL1        0.0513
     35 C         138.6028  144.5098  163.2272 C.3     1  UNL1        0.2086
@<TRIPOS>BOND
     1    34    35    1
     2    35    33    1
     3    33    31    1
     4    31    32    2
     5    31    25    1
     6    25    26    1
     7    26    27    1
     8    27    28    1
     9    28    24    1
    10    24    23    1
    11    23    22    1
    12    22     1    1
    13     1     2   ar
    14     2     3   ar
    15     3     4   ar
    16     4     7    1
    17     7     8    2
    18     7     9    2
    19     7    10    1
    20    10    11   am
    21    11    12    2
    22    11    13   am
    23    13    16    1
    24    16    17   ar
    25    17    18   ar
    26    18    19   ar
    27    19    20   ar
    28    20    21   ar
    29     4     5   ar
    30     5     6   ar
    31    28    29    1
    32    29    30    1
    33    30    25    1
    34     6     1   ar
    35    21    16   ar
    36    10    14    1
    37    13    15    1
@<TRIPOS>MOLECULE
*****
 35 37 0 0 0
SMALL
GASTEIGER

@<TRIPOS>ATOM
      1 C         143.6228  139.5920  159.8982 C.ar    1  UNL1        0.1387
      2 C         144.0099  138.8149  161.1214 C.ar    1  UNL1        0.0383
      3 C         144.1369  139.5117  162.4437 C.ar    1  UNL1        0.0233
      4 C         143.8767  140.9857  162.5427 C.ar    1  UNL1        0.1255
      5 C         143.4896  141.7628  161.3194 C.ar    1  UNL1        0.0233
      6 C         143.3627  141.0659  159.9972 C.ar    1  UNL1        0.0383
      7 S         144.0036  141.6825  163.8649 S.O2    1  UNL1        0.0768
      8 O         145.0581  140.7003  164.2813 O.2     1  UNL1       -0.1498
      9 O         142.9491  142.6647  163.4484 O.2     1  UNL1       -0.1498
     10 N         144.1305  142.3793  165.1871 N.am    1  UNL1       -0.1690
     11 C         143.2602  141.9689  166.3378 C.2     1  UNL1        0.3231
     12 O         142.2630  140.8617  166.1663 O.2     1  UNL1       -0.2509
     13 N         143.3872  142.6658  167.6600 N.am    1  UNL1       -0.2671
     14 H         144.7850  143.1061  165.2996 H       1  UNL1        0.1781
     15 H         144.0417  143.3926  167.7726 H       1  UNL1        0.1565
     16 C         142.5169  142.2554  168.8107 C.ar    1  UNL1        0.0516
     17 C         143.0328  141.2866  169.8330 C.ar    1  UNL1        0.0147
     18 C         142.1625  140.8762  170.9837 C.ar    1  UNL1        0.0013
     19 C         140.7762  141.4346  171.1121 C.ar    1  UNL1        0.0001
     20 C         140.2603  142.4035  170.0898 C.ar    1  UNL1        0.0013
     21 C         141.1306  142.8139  168.9391 C.ar    1  UNL1        0.0147
     22 O         143.4959  138.8951  158.5759 O.3     1  UNL1       -0.4740
     23 C         142.3645  137.9396  158.3373 C.3     1  UNL1        0.2226
     24 C         140.9746  138.4613  158.1232 C.3     1  UNL1        0.1200
     25 C         138.7164  140.3181  161.5442 C.3     1  UNL1        0.1018
     26 C         139.2338  138.9149  161.6606 C.3     1  UNL1        0.0285
     27 C         139.9865  138.2960  160.5203 C.3     1  UNL1        0.0728
     28 N         140.2219  139.0802  159.2635 N.3     1  UNL1       -0.2695
     29 C         139.7046  140.4834  159.1471 C.3     1  UNL1        0.0728
     30 C         138.9518  141.1023  160.2874 C.3     1  UNL1        0.0285
     31 C         137.9637  140.9370  162.6845 C.2     1  UNL1        0.3165
     32 O         137.9401  140.2601  164.0229 O.2     1  UNL1       -0.2501
     33 O         137.2346  142.2327  162.4865 O.3     1  UNL1       -0.4485
     34 C         137.8680  144.0514  164.2304 C.3     1  UNL1        0.0513
     35 C         137.9064  143.5306  162.8242 C.3     1  UNL1        0.2086
@<TRIPOS>BOND
     1    34    35    1
     2    35    33    1
     3    33    31    1
     4    31    32    2
     5    31    25    1
     6    25    26    1
     7    26    27    1
     8    27    28    1
     9    28    24    1
    10    24    23    1
    11    23    22    1
    12    22     1    1
    13     1     2   ar
    14     2     3   ar
    15     3     4   ar
    16     4     7    1
    17     7     8    2
    18     7     9    2
    19     7    10    1
    20    10    11   am
    21    11    12    2
    22    11    13   am
    23    13    16    1
    24    16    17   ar
    25    17    18   ar
    26    18    19   ar
    27    19    20   ar
    28    20    21   ar
    29     4     5   ar
    30     5     6   ar
    31    28    29    1
    32    29    30    1
    33    30    25    1
    34     6     1   ar
    35    21    16   ar
    36    10    14    1
    37    13    15    1
@<TRIPOS>MOLECULE
*****
 35 37 0 0 0
SMALL
GASTEIGER

@<TRIPOS>ATOM
      1 C         138.8039  139.2145  160.1685 C.ar    1  UNL1        0.1387
      2 C         139.4632  138.1211  160.9558 C.ar    1  UNL1        0.0383
      3 C         139.3101  138.0739  162.4473 C.ar    1  UNL1        0.0233
      4 C         138.4978  139.1200  163.1514 C.ar    1  UNL1        0.1255
      5 C         137.8385  140.2133  162.3640 C.ar    1  UNL1        0.0233
      6 C         137.9915  140.2606  160.8726 C.ar    1  UNL1        0.0383
      7 S         138.3447  139.0727  164.6428 S.O2    1  UNL1        0.0768
      8 O         138.8944  137.6771  164.6550 O.2     1  UNL1       -0.1498
      9 O         137.7951  140.4683  164.6306 O.2     1  UNL1       -0.1498
     10 N         138.1916  139.0255  166.1342 N.am    1  UNL1       -0.1690
     11 C         139.2072  139.6924  167.0139 C.2     1  UNL1        0.3231
     12 O         140.3758  140.4066  166.4022 O.2     1  UNL1       -0.2509
     13 N         139.0541  139.6452  168.5053 N.am    1  UNL1       -0.2671
     14 H         137.4246  138.5567  166.5357 H       1  UNL1        0.1781
     15 H         138.2870  139.1764  168.9068 H       1  UNL1        0.1565
     16 C         140.0696  140.3121  169.3850 C.ar    1  UNL1        0.0516
     17 C         139.8055  141.6854  169.9276 C.ar    1  UNL1        0.0147
     18 C         140.8211  142.3523  170.8073 C.ar    1  UNL1        0.0013
     19 C         142.1007  141.6461  171.1444 C.ar    1  UNL1        0.0001
     20 C         142.3648  140.2727  170.6018 C.ar    1  UNL1        0.0013
     21 C         141.3493  139.6058  169.7221 C.ar    1  UNL1        0.0147
     22 O         138.9570  139.2618  158.6771 O.3     1  UNL1       -0.4740
     23 C         139.2281  140.5684  157.9920 C.3     1  UNL1        0.2226
     24 C         140.5389  141.2669  158.2010 C.3     1  UNL1        0.1200
     25 C         141.4510  143.2026  162.1597 C.3     1  UNL1        0.1018
     26 C         142.0427  141.8657  161.8245 C.3     1  UNL1        0.0285
     27 C         141.7387  141.2205  160.5049 C.3     1  UNL1        0.0728
     28 N         140.8429  141.9122  159.5205 N.3     1  UNL1       -0.2695
     29 C         140.2512  143.2491  159.8557 C.3     1  UNL1        0.0728
     30 C         140.5552  143.8943  161.1753 C.3     1  UNL1        0.0285
     31 C         141.7550  143.8479  163.4792 C.2     1  UNL1        0.3165
     32 O         141.8750  145.3400  163.5745 O.2     1  UNL1       -0.2501
     33 O         141.9391  143.0010  164.7035 O.3     1  UNL1       -0.4485
     34 C         144.4079  143.5784  165.2706 C.3     1  UNL1        0.0513
     35 C         143.3143  142.5639  165.1132 C.3     1  UNL1        0.2086
@<TRIPOS>BOND
     1    34    35    1
     2    35    33    1
     3    33    31    1
     4    31    32    2
     5    31    25    1
     6    25    26    1
     7    26    27    1
     8    27    28    1
     9    28    24    1
    10    24    23    1
    11    23    22    1
    12    22     1    1
    13     1     2   ar
    14     2     3   ar
    15     3     4   ar
    16     4     7    1
    17     7     8    2
    18     7     9    2
    19     7    10    1
    20    10    11   am
    21    11    12    2
    22    11    13   am
    23    13    16    1
    24    16    17   ar
    25    17    18   ar
    26    18    19   ar
    27    19    20   ar
    28    20    21   ar
    29     4     5   ar
    30     5     6   ar
    31    28    29    1
    32    29    30    1
    33    30    25    1
    34     6     1   ar
    35    21    16   ar
    36    10    14    1
    37    13    15    1
@<TRIPOS>MOLECULE
*****
 35 37 0 0 0
SMALL
GASTEIGER

@<TRIPOS>ATOM
      1 C         143.8576  139.8054  159.8085 C.ar    1  UNL1        0.1387
      2 C         144.0919  141.0074  160.6747 C.ar    1  UNL1        0.0383
      3 C         144.0185  140.8818  162.1676 C.ar    1  UNL1        0.0233
      4 C         143.7107  139.5542  162.7944 C.ar    1  UNL1        0.1255
      5 C         143.4764  138.3522  161.9281 C.ar    1  UNL1        0.0233
      6 C         143.5499  138.4778  160.4352 C.ar    1  UNL1        0.0383
      7 S         143.6372  139.4286  164.2873 S.O2    1  UNL1        0.0768
      8 O         142.4877  138.4748  164.1504 O.2     1  UNL1       -0.1498
      9 O         144.7868  140.3824  164.4241 O.2     1  UNL1       -0.1498
     10 N         143.5638  139.3030  165.7801 N.am    1  UNL1       -0.1690
     11 C         142.6635  140.2099  166.5657 C.2     1  UNL1        0.3231
     12 O         141.8367  141.2423  165.8584 O.2     1  UNL1       -0.2509
     13 N         142.5901  140.0842  168.0587 N.am    1  UNL1       -0.2671
     14 H         144.1064  138.6254  166.2444 H       1  UNL1        0.1781
     15 H         143.1327  139.4066  168.5229 H       1  UNL1        0.1565
     16 C         141.6898  140.9911  168.8443 C.ar    1  UNL1        0.0516
     17 C         140.3525  140.4986  169.3122 C.ar    1  UNL1        0.0147
     18 C         139.4522  141.4055  170.0978 C.ar    1  UNL1        0.0013
     19 C         139.8892  142.8048  170.4154 C.ar    1  UNL1        0.0001
     20 C         141.2266  143.2973  169.9474 C.ar    1  UNL1        0.0013
     21 C         142.1269  142.3904  169.1619 C.ar    1  UNL1        0.0147
     22 O         143.9311  139.9310  158.3155 O.3     1  UNL1       -0.4740
     23 C         142.8702  140.6885  157.5735 C.3     1  UNL1        0.2226
     24 C         141.4501  140.6567  158.0553 C.3     1  UNL1        0.1200
     25 C         139.9737  143.8005  160.9165 C.3     1  UNL1        0.1018
     26 C         141.0941  144.1146  159.9700 C.3     1  UNL1        0.0285
     27 C         141.5863  143.0667  159.0162 C.3     1  UNL1        0.0728
     28 N         140.9579  141.7046  159.0090 N.3     1  UNL1       -0.2695
     29 C         139.8375  141.3906  159.9555 C.3     1  UNL1        0.0728
     30 C         139.3454  142.4385  160.9092 C.3     1  UNL1        0.0285
     31 C         139.4815  144.8485  161.8702 C.2     1  UNL1        0.3165
     32 O         140.2935  146.0871  162.1078 O.2     1  UNL1       -0.2501
     33 O         138.1774  144.6578  162.5863 O.3     1  UNL1       -0.4485
     34 C         138.5373  144.7841  165.1563 C.3     1  UNL1        0.0513
     35 C         138.1514  144.0026  163.9354 C.3     1  UNL1        0.2086
@<TRIPOS>BOND
     1    34    35    1
     2    35    33    1
     3    33    31    1
     4    31    32    2
     5    31    25    1
     6    25    26    1
     7    26    27    1
     8    27    28    1
     9    28    24    1
    10    24    23    1
    11    23    22    1
    12    22     1    1
    13     1     2   ar
    14     2     3   ar
    15     3     4   ar
    16     4     7    1
    17     7     8    2
    18     7     9    2
    19     7    10    1
    20    10    11   am
    21    11    12    2
    22    11    13   am
    23    13    16    1
    24    16    17   ar
    25    17    18   ar
    26    18    19   ar
    27    19    20   ar
    28    20    21   ar
    29     4     5   ar
    30     5     6   ar
    31    28    29    1
    32    29    30    1
    33    30    25    1
    34     6     1   ar
    35    21    16   ar
    36    10    14    1
    37    13    15    1
@<TRIPOS>MOLECULE
*****
 35 37 0 0 0
SMALL
GASTEIGER

@<TRIPOS>ATOM
      1 C         139.7581  138.7689  160.0932 C.ar    1  UNL1        0.1387
      2 C         140.8338  138.4385  161.0850 C.ar    1  UNL1        0.0383
      3 C         140.5352  138.4729  162.5546 C.ar    1  UNL1        0.0233
      4 C         139.1610  138.8377  163.0324 C.ar    1  UNL1        0.1255
      5 C         138.0852  139.1681  162.0405 C.ar    1  UNL1        0.0233
      6 C         138.3838  139.1337  160.5710 C.ar    1  UNL1        0.0383
      7 S         138.8624  138.8720  164.5019 S.O2    1  UNL1        0.0768
      8 O         139.6711  137.6237  164.6955 O.2     1  UNL1       -0.1498
      9 O         138.0536  140.1204  164.3084 O.2     1  UNL1       -0.1498
     10 N         138.5638  138.9064  165.9715 N.am    1  UNL1       -0.1690
     11 C         139.4541  139.6781  166.8999 C.2     1  UNL1        0.3231
     12 O         140.6430  140.4154  166.3587 O.2     1  UNL1       -0.2509
     13 N         139.1555  139.7124  168.3695 N.am    1  UNL1       -0.2671
     14 H         137.7835  138.4225  166.3267 H       1  UNL1        0.1781
     15 H         138.3751  139.2285  168.7247 H       1  UNL1        0.1565
     16 C         140.0458  140.4841  169.2979 C.ar    1  UNL1        0.0516
     17 C         141.0730  139.7657  170.1217 C.ar    1  UNL1        0.0147
     18 C         141.9633  140.5374  171.0501 C.ar    1  UNL1        0.0013
     19 C         141.8264  142.0275  171.1546 C.ar    1  UNL1        0.0001
     20 C         140.7991  142.7459  170.3308 C.ar    1  UNL1        0.0013
     21 C         139.9088  141.9742  169.4024 C.ar    1  UNL1        0.0147
     22 O         140.0566  138.7345  158.6236 O.3     1  UNL1       -0.4740
     23 C         139.6191  139.8671  157.7427 C.3     1  UNL1        0.2226
     24 C         140.5545  141.0066  157.4660 C.3     1  UNL1        0.1200
     25 C         143.4911  142.3218  160.6119 C.3     1  UNL1        0.1018
     26 C         143.8876  141.2861  159.6019 C.3     1  UNL1        0.0285
     27 C         142.9088  140.8477  158.5533 C.3     1  UNL1        0.0728
     28 N         141.5334  141.4450  158.5146 N.3     1  UNL1       -0.2695
     29 C         141.1368  142.4806  159.5246 C.3     1  UNL1        0.0728
     30 C         142.1157  142.9190  160.5733 C.3     1  UNL1        0.0285
     31 C         144.4699  142.7602  161.6606 C.2     1  UNL1        0.3165
     32 O         145.4747  141.7871  162.2023 O.2     1  UNL1       -0.2501
     33 O         144.4440  144.1717  162.1675 O.3     1  UNL1       -0.4485
     34 C         142.5080  145.1678  163.5851 C.3     1  UNL1        0.0513
     35 C         143.8372  144.4773  163.5048 C.3     1  UNL1        0.2086
@<TRIPOS>BOND
     1    34    35    1
     2    35    33    1
     3    33    31    1
     4    31    32    2
     5    31    25    1
     6    25    26    1
     7    26    27    1
     8    27    28    1
     9    28    24    1
    10    24    23    1
    11    23    22    1
    12    22     1    1
    13     1     2   ar
    14     2     3   ar
    15     3     4   ar
    16     4     7    1
    17     7     8    2
    18     7     9    2
    19     7    10    1
    20    10    11   am
    21    11    12    2
    22    11    13   am
    23    13    16    1
    24    16    17   ar
    25    17    18   ar
    26    18    19   ar
    27    19    20   ar
    28    20    21   ar
    29     4     5   ar
    30     5     6   ar
    31    28    29    1
    32    29    30    1
    33    30    25    1
    34     6     1   ar
    35    21    16   ar
    36    10    14    1
    37    13    15    1
@<TRIPOS>MOLECULE
*****
 35 37 0 0 0
SMALL
GASTEIGER

@<TRIPOS>ATOM
      1 C         143.2616  138.5409  165.8568 C.ar    1  UNL1        0.1387
      2 C         142.0775  137.8734  165.2225 C.ar    1  UNL1        0.0383
      3 C         141.9682  137.8017  163.7282 C.ar    1  UNL1        0.0233
      4 C         143.0431  138.3976  162.8681 C.ar    1  UNL1        0.1255
      5 C         144.2272  139.0651  163.5025 C.ar    1  UNL1        0.0233
      6 C         144.3364  139.1368  164.9967 C.ar    1  UNL1        0.0383
      7 S         142.9339  138.3259  161.3739 S.O2    1  UNL1        0.0768
      8 O         144.2314  137.5757  161.3150 O.2     1  UNL1       -0.1498
      9 O         141.6363  139.0761  161.4327 O.2     1  UNL1       -0.1498
     10 N         142.8246  138.2542  159.8796 N.am    1  UNL1       -0.1690
     11 C         143.3930  139.3539  159.0325 C.2     1  UNL1        0.3231
     12 O         144.0705  140.5253  159.6796 O.2     1  UNL1       -0.2509
     13 N         143.2837  139.2822  157.5381 N.am    1  UNL1       -0.2671
     14 H         142.3799  137.4854  159.4549 H       1  UNL1        0.1781
     15 H         142.8390  138.5134  157.1134 H       1  UNL1        0.1565
     16 C         143.8521  140.3819  156.6909 C.ar    1  UNL1        0.0516
     17 C         145.2113  140.2283  156.0754 C.ar    1  UNL1        0.0147
     18 C         145.7796  141.3280  155.2283 C.ar    1  UNL1        0.0013
     19 C         144.9887  142.5813  154.9966 C.ar    1  UNL1        0.0001
     20 C         143.6294  142.7350  155.6122 C.ar    1  UNL1        0.0013
     21 C         143.0611  141.6353  156.4593 C.ar    1  UNL1        0.0147
     22 O         143.3708  138.6126  167.3511 O.3     1  UNL1       -0.4740
     23 C         142.4935  139.5531  168.1230 C.3     1  UNL1        0.2226
     24 C         142.0647  140.8529  167.5094 C.3     1  UNL1        0.1200
     25 C         139.0075  140.8823  164.2075 C.3     1  UNL1        0.1018
     26 C         140.3959  141.3874  163.9486 C.3     1  UNL1        0.0285
     27 C         141.4150  141.3776  165.0492 C.3     1  UNL1        0.0728
     28 N         141.0456  140.8627  166.4088 N.3     1  UNL1       -0.2695
     29 C         139.6572  140.3576  166.6677 C.3     1  UNL1        0.0728
     30 C         138.6381  140.3674  165.5671 C.3     1  UNL1        0.0285
     31 C         137.9884  140.8921  163.1069 C.2     1  UNL1        0.3165
     32 O         137.8769  139.7200  162.1776 O.2     1  UNL1       -0.2501
     33 O         137.0809  142.0741  162.9356 O.3     1  UNL1       -0.4485
     34 C         137.8544  144.1187  164.3396 C.3     1  UNL1        0.0513
     35 C         137.6388  143.4646  163.0070 C.3     1  UNL1        0.2086
@<TRIPOS>BOND
     1    34    35    1
     2    35    33    1
     3    33    31    1
     4    31    32    2
     5    31    25    1
     6    25    26    1
     7    26    27    1
     8    27    28    1
     9    28    24    1
    10    24    23    1
    11    23    22    1
    12    22     1    1
    13     1     2   ar
    14     2     3   ar
    15     3     4   ar
    16     4     7    1
    17     7     8    2
    18     7     9    2
    19     7    10    1
    20    10    11   am
    21    11    12    2
    22    11    13   am
    23    13    16    1
    24    16    17   ar
    25    17    18   ar
    26    18    19   ar
    27    19    20   ar
    28    20    21   ar
    29     4     5   ar
    30     5     6   ar
    31    28    29    1
    32    29    30    1
    33    30    25    1
    34     6     1   ar
    35    21    16   ar
    36    10    14    1
    37    13    15    1
