@<TRIPOS>MOLECULE
*****
 28 31 0 0 0
SMALL
GASTEIGER

@<TRIPOS>ATOM
      1 N         139.3311  141.5486  164.3066 N.pl3   1  UNL1       -0.2932
      2 C         140.6797  141.6219  163.6540 C.3     1  UNL1        0.0922
      3 C         140.8395  142.3264  162.3395 C.3     1  UNL1        0.0215
      4 C         139.6507  142.9576  161.6774 C.3     1  UNL1        0.0035
      5 C         138.3020  142.8842  162.3300 C.3     1  UNL1        0.0215
      6 C         138.1423  142.1797  163.6446 C.3     1  UNL1        0.0922
      7 C         137.2208  137.7418  167.1447 C.3     1  UNL1        0.0523
      8 C         138.1162  138.9407  167.0403 C.ar    1  UNL1        0.0645
      9 C         138.2760  139.6452  165.7257 C.ar    1  UNL1        0.0491
     10 C         139.1714  140.8441  165.6213 C.ar    1  UNL1        0.1352
     11 N         139.9071  141.3384  166.8314 N.ar    1  UNL1       -0.2029
     12 C         139.7473  140.6339  168.1459 C.ar    1  UNL1        0.2339
     13 N         138.8519  139.4350  168.2504 N.ar    1  UNL1       -0.2221
     14 C         140.4830  141.1282  169.3561 C.1     1  UNL1        0.1400
     15 N         141.2186  141.6225  170.5662 N.1     1  UNL1       -0.1876
     16 C         139.8104  143.6620  160.3628 C.3     1  UNL1        0.0035
     17 C         139.2568  143.0486  159.1110 C.3     1  UNL1        0.0216
     18 C         139.4166  143.7530  157.7964 C.3     1  UNL1        0.0936
     19 N         140.1300  145.0711  157.7337 N.pl3   1  UNL1       -0.2782
     20 C         140.6837  145.6845  158.9855 C.3     1  UNL1        0.0936
     21 C         140.5238  144.9800  160.3001 C.3     1  UNL1        0.0216
     22 C         140.2898  145.7755  156.4191 C.ar    1  UNL1        0.2202
     23 N         141.2312  145.2311  155.3860 N.ar    1  UNL1       -0.2112
     24 C         141.3910  145.9356  154.0714 C.ar    1  UNL1        0.1147
     25 C         140.6093  147.1846  153.7899 C.ar    1  UNL1        0.0960
     26 CL        140.7691  147.8890  152.4753 Cl      1  UNL1       -0.0790
     27 C         139.6679  147.7290  154.8230 C.ar    1  UNL1        0.1147
     28 N         139.5081  147.0244  156.1376 N.ar    1  UNL1       -0.2112
@<TRIPOS>BOND
     1     7     8    1
     2     8     9   ar
     3     9    10   ar
     4    10     1    1
     5     1     2    1
     6     2     3    1
     7     3     4    1
     8     4    16    1
     9    16    17    1
    10    17    18    1
    11    18    19    1
    12    19    22    1
    13    22    23   ar
    14    23    24   ar
    15    24    25   ar
    16    25    26    1
    17    25    27   ar
    18    27    28   ar
    19    19    20    1
    20    20    21    1
    21     4     5    1
    22     5     6    1
    23    10    11   ar
    24    11    12   ar
    25    12    14    1
    26    14    15    3
    27    12    13   ar
    28    13     8   ar
    29     6     1    1
    30    21    16    1
    31    28    22   ar
@<TRIPOS>MOLECULE
*****
 28 31 0 0 0
SMALL
GASTEIGER

@<TRIPOS>ATOM
      1 N         141.5304  142.7251  165.5985 N.pl3   1  UNL1       -0.2932
      2 C         140.3822  143.5600  165.1141 C.3     1  UNL1        0.0922
      3 C         140.3277  144.0014  163.6816 C.3     1  UNL1        0.0215
      4 C         141.4215  143.6079  162.7334 C.3     1  UNL1        0.0035
      5 C         142.5697  142.7731  163.2178 C.3     1  UNL1        0.0215
      6 C         142.6241  142.3317  164.6504 C.3     1  UNL1        0.0922
      7 C         144.1293  142.2873  170.0767 C.3     1  UNL1        0.0523
      8 C         142.8843  142.0648  169.2702 C.ar    1  UNL1        0.0645
      9 C         142.8298  142.5062  167.8376 C.ar    1  UNL1        0.0491
     10 C         141.5848  142.2837  167.0311 C.ar    1  UNL1        0.1352
     11 N         140.3943  141.6198  167.6571 N.ar    1  UNL1       -0.2029
     12 C         140.4488  141.1785  169.0896 C.ar    1  UNL1        0.2339
     13 N         141.6938  141.4010  169.8961 N.ar    1  UNL1       -0.2221
     14 C         139.2582  140.5146  169.7157 C.1     1  UNL1        0.1400
     15 N         138.0677  139.8508  170.3418 N.1     1  UNL1       -0.1876
     16 C         141.3670  144.0493  161.3009 C.3     1  UNL1        0.0035
     17 C         142.3086  143.4541  160.2963 C.3     1  UNL1        0.0216
     18 C         142.2541  143.8955  158.8638 C.3     1  UNL1        0.0936
     19 N         141.2580  144.9322  158.4358 N.pl3   1  UNL1       -0.2782
     20 C         140.3164  145.5274  159.4403 C.3     1  UNL1        0.0936
     21 C         140.3709  145.0860  160.8729 C.3     1  UNL1        0.0216
     22 C         141.2035  145.3736  157.0032 C.ar    1  UNL1        0.2202
     23 N         142.1800  144.8178  156.0095 N.ar    1  UNL1       -0.2112
     24 C         142.1256  145.2592  154.5770 C.ar    1  UNL1        0.1147
     25 C         141.0945  146.2565  154.1382 C.ar    1  UNL1        0.0960
     26 CL        141.0400  146.6979  152.7056 Cl      1  UNL1       -0.0790
     27 C         140.1180  146.8123  155.1319 C.ar    1  UNL1        0.1147
     28 N         140.1725  146.3708  156.5645 N.ar    1  UNL1       -0.2112
@<TRIPOS>BOND
     1     7     8    1
     2     8     9   ar
     3     9    10   ar
     4    10     1    1
     5     1     2    1
     6     2     3    1
     7     3     4    1
     8     4    16    1
     9    16    17    1
    10    17    18    1
    11    18    19    1
    12    19    22    1
    13    22    23   ar
    14    23    24   ar
    15    24    25   ar
    16    25    26    1
    17    25    27   ar
    18    27    28   ar
    19    19    20    1
    20    20    21    1
    21     4     5    1
    22     5     6    1
    23    10    11   ar
    24    11    12   ar
    25    12    14    1
    26    14    15    3
    27    12    13   ar
    28    13     8   ar
    29     6     1    1
    30    21    16    1
    31    28    22   ar
@<TRIPOS>MOLECULE
*****
 28 31 0 0 0
SMALL
GASTEIGER

@<TRIPOS>ATOM
      1 N         141.5552  142.7211  165.5785 N.pl3   1  UNL1       -0.2932
      2 C         142.6044  142.2498  164.6157 C.3     1  UNL1        0.0922
      3 C         142.5545  142.6834  163.1806 C.3     1  UNL1        0.0215
      4 C         141.4553  143.5884  162.7084 C.3     1  UNL1        0.0035
      5 C         140.4062  144.0597  163.6713 C.3     1  UNL1        0.0215
      6 C         140.4561  143.6260  165.1064 C.3     1  UNL1        0.0922
      7 C         144.1379  142.3131  170.0689 C.3     1  UNL1        0.0523
      8 C         142.8965  142.0834  169.2588 C.ar    1  UNL1        0.0645
      9 C         142.8465  142.5170  167.8238 C.ar    1  UNL1        0.0491
     10 C         141.6052  142.2874  167.0137 C.ar    1  UNL1        0.1352
     11 N         140.4138  141.6240  167.6386 N.ar    1  UNL1       -0.2029
     12 C         140.4638  141.1903  169.0736 C.ar    1  UNL1        0.2339
     13 N         141.7052  141.4200  169.8837 N.ar    1  UNL1       -0.2221
     14 C         139.2724  140.5269  169.6986 C.1     1  UNL1        0.1400
     15 N         138.0811  139.8635  170.3236 N.1     1  UNL1       -0.1876
     16 C         141.4054  144.0221  161.2733 C.3     1  UNL1        0.0035
     17 C         140.4067  145.0520  160.8354 C.3     1  UNL1        0.0216
     18 C         140.3568  145.4857  159.4003 C.3     1  UNL1        0.0936
     19 N         141.3056  144.8894  158.4032 N.pl3   1  UNL1       -0.2782
     20 C         142.3044  143.8595  158.8411 C.3     1  UNL1        0.0936
     21 C         142.3542  143.4258  160.2763 C.3     1  UNL1        0.0216
     22 C         141.2557  145.3230  156.9681 C.ar    1  UNL1        0.2202
     23 N         140.1924  146.2763  156.5092 N.ar    1  UNL1       -0.2112
     24 C         140.1425  146.7100  155.0742 C.ar    1  UNL1        0.1147
     25 C         141.1559  146.1904  154.0979 C.ar    1  UNL1        0.0960
     26 CL        141.1060  146.6240  152.6629 Cl      1  UNL1       -0.0790
     27 C         142.2193  145.2371  154.5568 C.ar    1  UNL1        0.1147
     28 N         142.2692  144.8034  155.9920 N.ar    1  UNL1       -0.2112
@<TRIPOS>BOND
     1     7     8    1
     2     8     9   ar
     3     9    10   ar
     4    10     1    1
     5     1     2    1
     6     2     3    1
     7     3     4    1
     8     4    16    1
     9    16    17    1
    10    17    18    1
    11    18    19    1
    12    19    22    1
    13    22    23   ar
    14    23    24   ar
    15    24    25   ar
    16    25    26    1
    17    25    27   ar
    18    27    28   ar
    19    19    20    1
    20    20    21    1
    21     4     5    1
    22     5     6    1
    23    10    11   ar
    24    11    12   ar
    25    12    14    1
    26    14    15    3
    27    12    13   ar
    28    13     8   ar
    29     6     1    1
    30    21    16    1
    31    28    22   ar
@<TRIPOS>MOLECULE
*****
 28 31 0 0 0
SMALL
GASTEIGER

@<TRIPOS>ATOM
      1 N         142.6572  141.1509  165.5788 N.pl3   1  UNL1       -0.2932
      2 C         143.5569  140.0859  165.0253 C.3     1  UNL1        0.0922
      3 C         143.9065  140.0829  163.5667 C.3     1  UNL1        0.0215
      4 C         143.3564  141.1450  162.6614 C.3     1  UNL1        0.0035
      5 C         142.4568  142.2100  163.2148 C.3     1  UNL1        0.0215
      6 C         142.1071  142.2130  164.6736 C.3     1  UNL1        0.0922
      7 C         142.5459  138.7475  170.1844 C.3     1  UNL1        0.0523
      8 C         142.2519  139.9521  169.3403 C.ar    1  UNL1        0.0645
      9 C         142.6015  139.9492  167.8816 C.ar    1  UNL1        0.0491
     10 C         142.3076  141.1539  167.0375 C.ar    1  UNL1        0.1352
     11 N         141.6641  142.3614  167.6521 N.ar    1  UNL1       -0.2029
     12 C         141.3145  142.3643  169.1108 C.ar    1  UNL1        0.2339
     13 N         141.6084  141.1597  169.9548 N.ar    1  UNL1       -0.2221
     14 C         140.6710  143.5719  169.7254 C.1     1  UNL1        0.1400
     15 N         140.0275  144.7794  170.3400 N.1     1  UNL1       -0.1876
     16 C         143.7060  141.1420  161.2027 C.3     1  UNL1        0.0035
     17 C         144.3082  142.3631  160.5733 C.3     1  UNL1        0.0216
     18 C         144.6578  142.3601  159.1147 C.3     1  UNL1        0.0936
     19 N         144.4053  141.1360  158.2854 N.pl3   1  UNL1       -0.2782
     20 C         143.8031  139.9148  158.9148 C.3     1  UNL1        0.0936
     21 C         143.4535  139.9178  160.3735 C.3     1  UNL1        0.0216
     22 C         144.7549  141.1330  156.8267 C.ar    1  UNL1        0.2202
     23 N         145.0177  139.8356  156.1211 N.ar    1  UNL1       -0.2112
     24 C         145.3673  139.8327  154.6624 C.ar    1  UNL1        0.1147
     25 C         145.4541  141.1270  153.9093 C.ar    1  UNL1        0.0960
     26 CL        145.8038  141.1240  152.4507 Cl      1  UNL1       -0.0790
     27 C         145.1914  142.4244  154.6149 C.ar    1  UNL1        0.1147
     28 N         144.8417  142.4273  156.0737 N.ar    1  UNL1       -0.2112
@<TRIPOS>BOND
     1     7     8    1
     2     8     9   ar
     3     9    10   ar
     4    10     1    1
     5     1     2    1
     6     2     3    1
     7     3     4    1
     8     4    16    1
     9    16    17    1
    10    17    18    1
    11    18    19    1
    12    19    22    1
    13    22    23   ar
    14    23    24   ar
    15    24    25   ar
    16    25    26    1
    17    25    27   ar
    18    27    28   ar
    19    19    20    1
    20    20    21    1
    21     4     5    1
    22     5     6    1
    23    10    11   ar
    24    11    12   ar
    25    12    14    1
    26    14    15    3
    27    12    13   ar
    28    13     8   ar
    29     6     1    1
    30    21    16    1
    31    28    22   ar
@<TRIPOS>MOLECULE
*****
 28 31 0 0 0
SMALL
GASTEIGER

@<TRIPOS>ATOM
      1 N         142.3634  141.5654  165.9746 N.pl3   1  UNL1       -0.2932
      2 C         141.7137  140.5390  165.0945 C.3     1  UNL1        0.0922
      3 C         142.0969  140.4411  163.6476 C.3     1  UNL1        0.0215
      4 C         143.1297  141.3696  163.0807 C.3     1  UNL1        0.0035
      5 C         143.7793  142.3959  163.9608 C.3     1  UNL1        0.0215
      6 C         143.3961  142.4938  165.4077 C.3     1  UNL1        0.0922
      7 C         143.3177  143.3129  170.7741 C.3     1  UNL1        0.0523
      8 C         142.4574  142.5371  169.8213 C.ar    1  UNL1        0.0645
      9 C         142.8405  142.4391  168.3744 C.ar    1  UNL1        0.0491
     10 C         141.9802  141.6633  167.4215 C.ar    1  UNL1        0.1352
     11 N         140.7367  140.9853  167.9156 N.ar    1  UNL1       -0.2029
     12 C         140.3536  141.0832  169.3625 C.ar    1  UNL1        0.2339
     13 N         141.2139  141.8591  170.3153 N.ar    1  UNL1       -0.2221
     14 C         139.1101  140.4052  169.8567 C.1     1  UNL1        0.1400
     15 N         137.8667  139.7272  170.3508 N.1     1  UNL1       -0.1876
     16 C         143.5128  141.2717  161.6338 C.3     1  UNL1        0.0035
     17 C         143.3467  139.9739  160.9001 C.3     1  UNL1        0.0216
     18 C         143.7298  139.8760  159.4532 C.3     1  UNL1        0.0936
     19 N         144.2791  141.0759  158.7399 N.pl3   1  UNL1       -0.2782
     20 C         144.4453  142.3736  159.4736 C.3     1  UNL1        0.0936
     21 C         144.0621  142.4715  160.9206 C.3     1  UNL1        0.0216
     22 C         144.6622  140.9780  157.2930 C.ar    1  UNL1        0.2202
     23 N         144.7820  139.6338  156.6381 N.ar    1  UNL1       -0.2112
     24 C         145.1651  139.5359  155.1912 C.ar    1  UNL1        0.1147
     25 C         145.4285  140.7822  154.3991 C.ar    1  UNL1        0.0960
     26 CL        145.8117  140.6843  152.9522 Cl      1  UNL1       -0.0790
     27 C         145.3088  142.1264  155.0540 C.ar    1  UNL1        0.1147
     28 N         144.9256  142.2242  156.5009 N.ar    1  UNL1       -0.2112
@<TRIPOS>BOND
     1     7     8    1
     2     8     9   ar
     3     9    10   ar
     4    10     1    1
     5     1     2    1
     6     2     3    1
     7     3     4    1
     8     4    16    1
     9    16    17    1
    10    17    18    1
    11    18    19    1
    12    19    22    1
    13    22    23   ar
    14    23    24   ar
    15    24    25   ar
    16    25    26    1
    17    25    27   ar
    18    27    28   ar
    19    19    20    1
    20    20    21    1
    21     4     5    1
    22     5     6    1
    23    10    11   ar
    24    11    12   ar
    25    12    14    1
    26    14    15    3
    27    12    13   ar
    28    13     8   ar
    29     6     1    1
    30    21    16    1
    31    28    22   ar
@<TRIPOS>MOLECULE
*****
 28 31 0 0 0
SMALL
GASTEIGER

@<TRIPOS>ATOM
      1 N         142.0061  140.2368  166.1366 N.pl3   1  UNL1       -0.2932
      2 C         141.3915  141.1128  165.0854 C.3     1  UNL1        0.0922
      3 C         141.3925  140.6759  163.6505 C.3     1  UNL1        0.0215
      4 C         142.0080  139.3629  163.2667 C.3     1  UNL1        0.0035
      5 C         142.6226  138.4869  164.3178 C.3     1  UNL1        0.0215
      6 C         142.6216  138.9239  165.7528 C.3     1  UNL1        0.0922
      7 C         143.4002  139.4526  171.0804 C.3     1  UNL1        0.0523
      8 C         142.7022  140.2817  170.0434 C.ar    1  UNL1        0.0645
      9 C         142.7031  139.8447  168.6085 C.ar    1  UNL1        0.0491
     10 C         142.0051  140.6739  167.5715 C.ar    1  UNL1        0.1352
     11 N         141.3061  141.9399  167.9695 N.ar    1  UNL1       -0.2029
     12 C         141.3051  142.3769  169.4044 C.ar    1  UNL1        0.2339
     13 N         142.0032  141.5478  170.4414 N.ar    1  UNL1       -0.2221
     14 C         140.6061  143.6430  169.8024 C.1     1  UNL1        0.1400
     15 N         139.9071  144.9091  170.2004 N.1     1  UNL1       -0.1876
     16 C         142.0090  138.9259  161.8317 C.3     1  UNL1        0.0035
     17 C         140.9138  139.3748  160.9103 C.3     1  UNL1        0.0216
     18 C         140.9148  138.9379  159.4754 C.3     1  UNL1        0.0936
     19 N         142.0110  138.0520  158.9618 N.pl3   1  UNL1       -0.2782
     20 C         143.1062  137.6030  159.8833 C.3     1  UNL1        0.0936
     21 C         143.1051  138.0400  161.3183 C.3     1  UNL1        0.0216
     22 C         142.0120  137.6150  157.5269 C.ar    1  UNL1        0.2202
     23 N         143.3112  137.4236  156.8021 N.ar    1  UNL1       -0.2112
     24 C         143.3121  136.9867  155.3672 C.ar    1  UNL1        0.1147
     25 C         142.0139  136.7411  154.6570 C.ar    1  UNL1        0.0960
     26 CL        142.0148  136.3041  153.2221 Cl      1  UNL1       -0.0790
     27 C         140.7146  136.9325  155.3819 C.ar    1  UNL1        0.1147
     28 N         140.7137  137.3695  156.8169 N.ar    1  UNL1       -0.2112
@<TRIPOS>BOND
     1     7     8    1
     2     8     9   ar
     3     9    10   ar
     4    10     1    1
     5     1     2    1
     6     2     3    1
     7     3     4    1
     8     4    16    1
     9    16    17    1
    10    17    18    1
    11    18    19    1
    12    19    22    1
    13    22    23   ar
    14    23    24   ar
    15    24    25   ar
    16    25    26    1
    17    25    27   ar
    18    27    28   ar
    19    19    20    1
    20    20    21    1
    21     4     5    1
    22     5     6    1
    23    10    11   ar
    24    11    12   ar
    25    12    14    1
    26    14    15    3
    27    12    13   ar
    28    13     8   ar
    29     6     1    1
    30    21    16    1
    31    28    22   ar
@<TRIPOS>MOLECULE
*****
 28 31 0 0 0
SMALL
GASTEIGER

@<TRIPOS>ATOM
      1 N         141.3962  139.9607  165.4245 N.pl3   1  UNL1       -0.2932
      2 C         141.2251  140.9770  164.3345 C.3     1  UNL1        0.0922
      3 C         141.2678  140.5497  162.8973 C.3     1  UNL1        0.0215
      4 C         141.4816  139.1062  162.5500 C.3     1  UNL1        0.0035
      5 C         141.6527  138.0899  163.6400 C.3     1  UNL1        0.0215
      6 C         141.6100  138.5173  165.0772 C.3     1  UNL1        0.0922
      7 C         138.8812  140.2422  169.9627 C.3     1  UNL1        0.0523
      8 C         140.0960  140.5288  169.1308 C.ar    1  UNL1        0.0645
      9 C         140.1387  140.1015  167.6936 C.ar    1  UNL1        0.0491
     10 C         141.3536  140.3881  166.8617 C.ar    1  UNL1        0.1352
     11 N         142.5257  141.1019  167.4670 N.ar    1  UNL1       -0.2029
     12 C         142.4830  141.5292  168.9042 C.ar    1  UNL1        0.2339
     13 N         141.2682  141.2426  169.7361 N.ar    1  UNL1       -0.2221
     14 C         143.6552  142.2432  169.5096 C.1     1  UNL1        0.1400
     15 N         144.8273  142.9571  170.1149 N.1     1  UNL1       -0.1876
     16 C         141.5242  138.6789  161.1128 C.3     1  UNL1        0.0035
     17 C         142.7778  138.0827  160.5445 C.3     1  UNL1        0.0216
     18 C         142.8205  137.6554  159.1073 C.3     1  UNL1        0.0936
     19 N         141.6095  137.8244  158.2383 N.pl3   1  UNL1       -0.2782
     20 C         140.3558  138.4206  158.8066 C.3     1  UNL1        0.0936
     21 C         140.3132  138.8478  160.2439 C.3     1  UNL1        0.0216
     22 C         141.6521  137.3971  156.8011 C.ar    1  UNL1        0.2202
     23 N         140.7570  138.0582  155.7953 N.ar    1  UNL1       -0.2112
     24 C         140.7997  137.6309  154.3581 C.ar    1  UNL1        0.1147
     25 C         141.7375  136.5425  153.9267 C.ar    1  UNL1        0.0960
     26 CL        141.7801  136.1153  152.4895 Cl      1  UNL1       -0.0790
     27 C         142.6325  135.8814  154.9325 C.ar    1  UNL1        0.1147
     28 N         142.5898  136.3087  156.3698 N.ar    1  UNL1       -0.2112
@<TRIPOS>BOND
     1     7     8    1
     2     8     9   ar
     3     9    10   ar
     4    10     1    1
     5     1     2    1
     6     2     3    1
     7     3     4    1
     8     4    16    1
     9    16    17    1
    10    17    18    1
    11    18    19    1
    12    19    22    1
    13    22    23   ar
    14    23    24   ar
    15    24    25   ar
    16    25    26    1
    17    25    27   ar
    18    27    28   ar
    19    19    20    1
    20    20    21    1
    21     4     5    1
    22     5     6    1
    23    10    11   ar
    24    11    12   ar
    25    12    14    1
    26    14    15    3
    27    12    13   ar
    28    13     8   ar
    29     6     1    1
    30    21    16    1
    31    28    22   ar
@<TRIPOS>MOLECULE
*****
 28 31 0 0 0
SMALL
GASTEIGER

@<TRIPOS>ATOM
      1 N         140.1528  141.4770  165.5387 N.pl3   1  UNL1       -0.2932
      2 C         140.9267  140.6661  164.5420 C.3     1  UNL1        0.0922
      3 C         140.4826  140.6147  163.1102 C.3     1  UNL1        0.0215
      4 C         139.2644  141.3742  162.6751 C.3     1  UNL1        0.0035
      5 C         138.4904  142.1851  163.6718 C.3     1  UNL1        0.0215
      6 C         138.9346  142.2365  165.1036 C.3     1  UNL1        0.0922
      7 C         140.5373  144.0412  170.0417 C.3     1  UNL1        0.0523
      8 C         140.7892  142.8105  169.2220 C.ar    1  UNL1        0.0645
      9 C         140.3450  142.7591  167.7902 C.ar    1  UNL1        0.0491
     10 C         140.5970  141.5284  166.9705 C.ar    1  UNL1        0.1352
     11 N         141.2930  140.3491  167.5826 N.ar    1  UNL1       -0.2029
     12 C         141.7372  140.4005  169.0144 C.ar    1  UNL1        0.2339
     13 N         141.4853  141.6312  169.8341 N.ar    1  UNL1       -0.2221
     14 C         142.4333  139.2211  169.6266 C.1     1  UNL1        0.1400
     15 N         143.1294  138.0418  170.2387 N.1     1  UNL1       -0.1876
     16 C         138.8203  141.3228  161.2433 C.3     1  UNL1        0.0035
     17 C         138.2907  140.0428  160.6678 C.3     1  UNL1        0.0216
     18 C         137.8466  139.9914  159.2360 C.3     1  UNL1        0.0936
     19 N         137.9320  141.2201  158.3796 N.pl3   1  UNL1       -0.2782
     20 C         138.4615  142.5001  158.9552 C.3     1  UNL1        0.0936
     21 C         138.9057  142.5514  160.3870 C.3     1  UNL1        0.0216
     22 C         137.4878  141.1687  156.9478 C.ar    1  UNL1        0.2202
     23 N         138.4115  141.6285  155.8591 N.ar    1  UNL1       -0.2112
     24 C         137.9674  141.5771  154.4273 C.ar    1  UNL1        0.1147
     25 C         136.5995  141.0659  154.0842 C.ar    1  UNL1        0.0960
     26 CL        136.1553  141.0145  152.6524 Cl      1  UNL1       -0.0790
     27 C         135.6758  140.6060  155.1730 C.ar    1  UNL1        0.1147
     28 N         136.1200  140.6575  156.6048 N.ar    1  UNL1       -0.2112
@<TRIPOS>BOND
     1     7     8    1
     2     8     9   ar
     3     9    10   ar
     4    10     1    1
     5     1     2    1
     6     2     3    1
     7     3     4    1
     8     4    16    1
     9    16    17    1
    10    17    18    1
    11    18    19    1
    12    19    22    1
    13    22    23   ar
    14    23    24   ar
    15    24    25   ar
    16    25    26    1
    17    25    27   ar
    18    27    28   ar
    19    19    20    1
    20    20    21    1
    21     4     5    1
    22     5     6    1
    23    10    11   ar
    24    11    12   ar
    25    12    14    1
    26    14    15    3
    27    12    13   ar
    28    13     8   ar
    29     6     1    1
    30    21    16    1
    31    28    22   ar
@<TRIPOS>MOLECULE
*****
 28 31 0 0 0
SMALL
GASTEIGER

@<TRIPOS>ATOM
      1 N         141.1023  142.4043  166.1643 N.pl3   1  UNL1       -0.2932
      2 C         139.8229  142.8415  165.5146 C.3     1  UNL1        0.0922
      3 C         139.8240  143.2912  164.0836 C.3     1  UNL1        0.0215
      4 C         141.1044  143.3036  163.3023 C.3     1  UNL1        0.0035
      5 C         142.3837  142.8664  163.9520 C.3     1  UNL1        0.0215
      6 C         142.3826  142.4167  165.3831 C.3     1  UNL1        0.0922
      7 C         139.5981  143.0790  171.0920 C.3     1  UNL1        0.0523
      8 C         140.3491  142.2920  170.0592 C.ar    1  UNL1        0.0645
      9 C         140.3502  142.7416  168.6282 C.ar    1  UNL1        0.0491
     10 C         141.1012  141.9547  167.5954 C.ar    1  UNL1        0.1352
     11 N         141.8510  140.7181  167.9936 N.ar    1  UNL1       -0.2029
     12 C         141.8499  140.2685  169.4246 C.ar    1  UNL1        0.2339
     13 N         141.0989  141.0555  170.4574 N.ar    1  UNL1       -0.2221
     14 C         142.5997  139.0319  169.8228 C.1     1  UNL1        0.1400
     15 N         143.3495  137.7953  170.2211 N.1     1  UNL1       -0.1876
     16 C         141.1055  143.7532  161.8713 C.3     1  UNL1        0.0035
     17 C         140.5760  145.1096  161.5109 C.3     1  UNL1        0.0216
     18 C         140.5771  145.5593  160.0799 C.3     1  UNL1        0.0936
     19 N         141.1076  144.6525  159.0092 N.pl3   1  UNL1       -0.2782
     20 C         141.6370  143.2961  159.3696 C.3     1  UNL1        0.0936
     21 C         141.6359  142.8465  160.8006 C.3     1  UNL1        0.0216
     22 C         141.1086  145.1021  157.5782 C.ar    1  UNL1        0.2202
     23 N         140.1154  146.1253  157.1128 N.ar    1  UNL1       -0.2112
     24 C         140.1165  146.5750  155.6818 C.ar    1  UNL1        0.1147
     25 C         141.1108  146.0014  154.7162 C.ar    1  UNL1        0.0960
     26 CL        141.1118  146.4511  153.2852 Cl      1  UNL1       -0.0790
     27 C         142.1040  144.9782  155.1815 C.ar    1  UNL1        0.1147
     28 N         142.1029  144.5286  156.6126 N.ar    1  UNL1       -0.2112
@<TRIPOS>BOND
     1     7     8    1
     2     8     9   ar
     3     9    10   ar
     4    10     1    1
     5     1     2    1
     6     2     3    1
     7     3     4    1
     8     4    16    1
     9    16    17    1
    10    17    18    1
    11    18    19    1
    12    19    22    1
    13    22    23   ar
    14    23    24   ar
    15    24    25   ar
    16    25    26    1
    17    25    27   ar
    18    27    28   ar
    19    19    20    1
    20    20    21    1
    21     4     5    1
    22     5     6    1
    23    10    11   ar
    24    11    12   ar
    25    12    14    1
    26    14    15    3
    27    12    13   ar
    28    13     8   ar
    29     6     1    1
    30    21    16    1
    31    28    22   ar
