@<TRIPOS>MOLECULE
*****
 16 17 0 0 0
SMALL
GASTEIGER

@<TRIPOS>ATOM
      1 F         143.1803  143.7960  170.9463 F       1  UNL1       -0.2033
      2 C         142.5395  142.8218  170.0027 C.ar    1  UNL1        0.1506
      3 C         143.2868  141.5957  169.5689 C.ar    1  UNL1        0.0302
      4 C         142.6459  140.6215  168.6252 C.ar    1  UNL1       -0.0019
      5 C         141.2579  140.8735  168.1156 C.ar    1  UNL1       -0.0199
      6 C         140.5106  142.0995  168.5495 C.ar    1  UNL1        0.0094
      7 C         141.1514  143.0738  169.4931 C.ar    1  UNL1        0.0847
      8 CL        140.4041  144.2998  169.9269 Cl      1  UNL1       -0.0799
      9 C         140.6170  139.8993  167.1720 C.3     1  UNL1        0.0424
     10 C         139.1417  139.6950  167.3504 C.3     1  UNL1        0.0315
     11 C         138.2211  138.7991  166.5757 C.2     1  UNL1       -0.0289
     12 C         138.5486  137.8865  165.4313 C.2     1  UNL1       -0.0136
     13 C         139.8773  137.6442  164.7788 C.3     1  UNL1        0.0950
     14 N         141.2069  138.2547  165.1097 N.3     1  UNL1       -0.2935
     15 C         141.5360  139.2584  166.1748 C.3     1  UNL1        0.0735
     16 H         141.5089  138.6957  164.2410 H       1  UNL1        0.1236
@<TRIPOS>BOND
     1     1     2    1
     2     2     3   ar
     3     3     4   ar
     4     4     5   ar
     5     5     9    1
     6     9    10    1
     7    10    11    1
     8    11    12    2
     9    12    13    1
    10    13    14    1
    11    14    15    1
    12     5     6   ar
    13     6     7   ar
    14     7     8    1
    15     7     2   ar
    16    15     9    1
    17    14    16    1
@<TRIPOS>MOLECULE
*****
 16 17 0 0 0
SMALL
GASTEIGER

@<TRIPOS>ATOM
      1 F         138.6287  141.2863  170.2639 F       1  UNL1       -0.2033
      2 C         139.7150  141.2815  169.2296 C.ar    1  UNL1        0.1506
      3 C         139.9475  140.0592  168.3918 C.ar    1  UNL1        0.0302
      4 C         141.0339  140.0545  167.3574 C.ar    1  UNL1       -0.0019
      5 C         141.8877  141.2720  167.1609 C.ar    1  UNL1       -0.0199
      6 C         141.6551  142.4943  167.9987 C.ar    1  UNL1        0.0094
      7 C         140.5688  142.4991  169.0331 C.ar    1  UNL1        0.0847
      8 CL        140.3362  143.7214  169.8709 Cl      1  UNL1       -0.0799
      9 C         142.9740  141.2673  166.1266 C.3     1  UNL1        0.0424
     10 C         143.5795  142.6034  165.8128 C.3     1  UNL1        0.0315
     11 C         144.6719  142.9294  164.8377 C.2     1  UNL1       -0.0289
     12 C         145.4283  141.9999  163.9358 C.2     1  UNL1       -0.0136
     13 C         145.2794  140.5148  163.7859 C.3     1  UNL1        0.0950
     14 N         144.3372  139.5925  164.5012 N.3     1  UNL1       -0.2935
     15 C         143.3112  139.9275  165.5429 C.3     1  UNL1        0.0735
     16 H         144.9434  138.9064  164.9509 H       1  UNL1        0.1236
@<TRIPOS>BOND
     1     1     2    1
     2     2     3   ar
     3     3     4   ar
     4     4     5   ar
     5     5     9    1
     6     9    10    1
     7    10    11    1
     8    11    12    2
     9    12    13    1
    10    13    14    1
    11    14    15    1
    12     5     6   ar
    13     6     7   ar
    14     7     8    1
    15     7     2   ar
    16    15     9    1
    17    14    16    1
@<TRIPOS>MOLECULE
*****
 16 17 0 0 0
SMALL
GASTEIGER

@<TRIPOS>ATOM
      1 F         144.0124  142.2352  169.8876 F       1  UNL1       -0.2033
      2 C         142.9625  142.3559  168.8232 C.ar    1  UNL1        0.1506
      3 C         143.3502  142.2857  167.3759 C.ar    1  UNL1        0.0302
      4 C         142.3002  142.4064  166.3114 C.ar    1  UNL1       -0.0019
      5 C         140.8625  142.5974  166.6943 C.ar    1  UNL1       -0.0199
      6 C         140.4748  142.6677  168.1416 C.ar    1  UNL1        0.0094
      7 C         141.5247  142.5470  169.2061 C.ar    1  UNL1        0.0847
      8 CL        141.1370  142.6172  170.6534 Cl      1  UNL1       -0.0799
      9 C         139.8125  142.7182  165.6299 C.3     1  UNL1        0.0424
     10 C         139.7077  144.0605  164.9686 C.3     1  UNL1        0.0315
     11 C         138.7706  144.4969  163.8816 C.2     1  UNL1       -0.0289
     12 C         137.7071  143.6988  163.1875 C.2     1  UNL1       -0.0136
     13 C         137.3178  142.2672  163.4089 C.3     1  UNL1        0.0950
     14 N         137.8960  141.2801  164.3792 N.3     1  UNL1       -0.2935
     15 C         139.0063  141.4809  165.3676 C.3     1  UNL1        0.0735
     16 H         138.2094  140.5033  163.7971 H       1  UNL1        0.1236
@<TRIPOS>BOND
     1     1     2    1
     2     2     3   ar
     3     3     4   ar
     4     4     5   ar
     5     5     9    1
     6     9    10    1
     7    10    11    1
     8    11    12    2
     9    12    13    1
    10    13    14    1
    11    14    15    1
    12     5     6   ar
    13     6     7   ar
    14     7     8    1
    15     7     2   ar
    16    15     9    1
    17    14    16    1
@<TRIPOS>MOLECULE
*****
 16 17 0 0 0
SMALL
GASTEIGER

@<TRIPOS>ATOM
      1 F         137.4511  138.7522  161.3736 F       1  UNL1       -0.2033
      2 C         138.1377  138.9333  162.6949 C.ar    1  UNL1        0.1506
      3 C         138.8980  137.7946  163.3073 C.ar    1  UNL1        0.0302
      4 C         139.5846  137.9757  164.6286 C.ar    1  UNL1       -0.0019
      5 C         139.5108  139.2956  165.3375 C.ar    1  UNL1       -0.0199
      6 C         138.7505  140.4343  164.7250 C.ar    1  UNL1        0.0094
      7 C         138.0639  140.2533  163.4037 C.ar    1  UNL1        0.0847
      8 CL        137.3035  141.3920  162.7913 Cl      1  UNL1       -0.0799
      9 C         140.1974  139.4767  166.6588 C.3     1  UNL1        0.0424
     10 C         141.6929  139.3622  166.6361 C.3     1  UNL1        0.0315
     11 C         142.6581  139.4911  167.7772 C.2     1  UNL1       -0.0289
     12 C         142.3662  139.7664  169.2224 C.2     1  UNL1       -0.0136
     13 C         141.0370  139.9808  169.8838 C.3     1  UNL1        0.0950
     14 N         139.6715  139.9728  169.2632 N.3     1  UNL1       -0.2935
     15 C         139.2979  139.7485  167.8278 C.3     1  UNL1        0.0735
     16 H         139.2832  140.8888  169.4881 H       1  UNL1        0.1236
@<TRIPOS>BOND
     1     1     2    1
     2     2     3   ar
     3     3     4   ar
     4     4     5   ar
     5     5     9    1
     6     9    10    1
     7    10    11    1
     8    11    12    2
     9    12    13    1
    10    13    14    1
    11    14    15    1
    12     5     6   ar
    13     6     7   ar
    14     7     8    1
    15     7     2   ar
    16    15     9    1
    17    14    16    1
@<TRIPOS>MOLECULE
*****
 16 17 0 0 0
SMALL
GASTEIGER

@<TRIPOS>ATOM
      1 F         141.2060  136.7116  163.6338 F       1  UNL1       -0.2033
      2 C         141.3269  137.7470  164.7123 C.ar    1  UNL1        0.1506
      3 C         142.6737  138.0855  165.2794 C.ar    1  UNL1        0.0302
      4 C         142.7945  139.1210  166.3580 C.ar    1  UNL1       -0.0019
      5 C         141.5687  139.8179  166.8694 C.ar    1  UNL1       -0.0199
      6 C         140.2219  139.4794  166.3022 C.ar    1  UNL1        0.0094
      7 C         140.1010  138.4439  165.2236 C.ar    1  UNL1        0.0847
      8 CL        138.7542  138.1054  164.6565 Cl      1  UNL1       -0.0799
      9 C         141.6895  140.8533  167.9479 C.3     1  UNL1        0.0424
     10 C         140.6668  141.9503  167.9144 C.3     1  UNL1        0.0315
     11 C         140.5191  143.1198  168.8421 C.2     1  UNL1       -0.0289
     12 C         141.3574  143.4811  170.0322 C.2     1  UNL1       -0.0136
     13 C         142.5505  142.7623  170.5888 C.3     1  UNL1        0.0950
     14 N         143.2000  141.5046  170.0926 N.3     1  UNL1       -0.2935
     15 C         142.8168  140.6550  168.9173 C.3     1  UNL1        0.0735
     16 H         143.1670  140.8685  170.8893 H       1  UNL1        0.1236
@<TRIPOS>BOND
     1     1     2    1
     2     2     3   ar
     3     3     4   ar
     4     4     5   ar
     5     5     9    1
     6     9    10    1
     7    10    11    1
     8    11    12    2
     9    12    13    1
    10    13    14    1
    11    14    15    1
    12     5     6   ar
    13     6     7   ar
    14     7     8    1
    15     7     2   ar
    16    15     9    1
    17    14    16    1
@<TRIPOS>MOLECULE
*****
 16 17 0 0 0
SMALL
GASTEIGER

@<TRIPOS>ATOM
      1 F         143.5219  139.8807  171.0323 F       1  UNL1       -0.2033
      2 C         142.6283  140.3686  169.9308 C.ar    1  UNL1        0.1506
      3 C         141.4361  139.5575  169.5174 C.ar    1  UNL1        0.0302
      4 C         140.5424  140.0455  168.4159 C.ar    1  UNL1       -0.0019
      5 C         140.8410  141.3444  167.7278 C.ar    1  UNL1       -0.0199
      6 C         142.0331  142.1555  168.1412 C.ar    1  UNL1        0.0094
      7 C         142.9268  141.6676  169.2427 C.ar    1  UNL1        0.0847
      8 CL        144.1190  142.4787  169.6561 Cl      1  UNL1       -0.0799
      9 C         139.9474  141.8324  166.6262 C.3     1  UNL1        0.0424
     10 C         140.0320  143.2986  166.3209 C.3     1  UNL1        0.0315
     11 C         139.2775  144.0842  165.2896 C.2     1  UNL1       -0.0289
     12 C         138.2521  143.5977  164.3090 C.2     1  UNL1       -0.0136
     13 C         137.7278  142.2054  164.1174 C.3     1  UNL1        0.0950
     14 N         138.0995  140.9558  164.8592 N.3     1  UNL1       -0.2935
     15 C         139.0874  140.7898  165.9757 C.3     1  UNL1        0.0735
     16 H         138.4231  140.3151  164.1344 H       1  UNL1        0.1236
@<TRIPOS>BOND
     1     1     2    1
     2     2     3   ar
     3     3     4   ar
     4     4     5   ar
     5     5     9    1
     6     9    10    1
     7    10    11    1
     8    11    12    2
     9    12    13    1
    10    13    14    1
    11    14    15    1
    12     5     6   ar
    13     6     7   ar
    14     7     8    1
    15     7     2   ar
    16    15     9    1
    17    14    16    1
@<TRIPOS>MOLECULE
*****
 16 17 0 0 0
SMALL
GASTEIGER

@<TRIPOS>ATOM
      1 F         142.9072  138.7694  169.9940 F       1  UNL1       -0.2033
      2 C         142.0778  139.5045  168.9833 C.ar    1  UNL1        0.1506
      3 C         142.5792  139.6701  167.5793 C.ar    1  UNL1        0.0302
      4 C         141.7497  140.4052  166.5685 C.ar    1  UNL1       -0.0019
      5 C         140.4189  140.9746  166.9617 C.ar    1  UNL1       -0.0199
      6 C         139.9175  140.8090  168.3656 C.ar    1  UNL1        0.0094
      7 C         140.7469  140.0739  169.3765 C.ar    1  UNL1        0.0847
      8 CL        140.2455  139.9083  170.7805 Cl      1  UNL1       -0.0799
      9 C         139.5895  141.7098  165.9509 C.3     1  UNL1        0.0424
     10 C         139.8435  143.1847  165.8494 C.3     1  UNL1        0.0315
     11 C         139.1865  144.1869  164.9471 C.2     1  UNL1       -0.0289
     12 C         138.1132  143.9617  163.9238 C.2     1  UNL1       -0.0136
     13 C         137.4318  142.6789  163.5498 C.3     1  UNL1        0.0950
     14 N         137.6554  141.3042  164.1069 N.3     1  UNL1       -0.2935
     15 C         138.6157  140.8730  165.1755 C.3     1  UNL1        0.0735
     16 H         137.9039  140.7373  163.2962 H       1  UNL1        0.1236
@<TRIPOS>BOND
     1     1     2    1
     2     2     3   ar
     3     3     4   ar
     4     4     5   ar
     5     5     9    1
     6     9    10    1
     7    10    11    1
     8    11    12    2
     9    12    13    1
    10    13    14    1
    11    14    15    1
    12     5     6   ar
    13     6     7   ar
    14     7     8    1
    15     7     2   ar
    16    15     9    1
    17    14    16    1
@<TRIPOS>MOLECULE
*****
 16 17 0 0 0
SMALL
GASTEIGER

@<TRIPOS>ATOM
      1 F         139.0621  143.0155  171.2700 F       1  UNL1       -0.2033
      2 C         139.9530  142.4705  170.1934 C.ar    1  UNL1        0.1506
      3 C         141.1325  143.2677  169.7210 C.ar    1  UNL1        0.0302
      4 C         142.0234  142.7227  168.6442 C.ar    1  UNL1       -0.0019
      5 C         141.7348  141.3805  168.0400 C.ar    1  UNL1       -0.0199
      6 C         140.5553  140.5833  168.5124 C.ar    1  UNL1        0.0094
      7 C         139.6643  141.1282  169.5891 C.ar    1  UNL1        0.0847
      8 CL        138.4848  140.3310  170.0615 Cl      1  UNL1       -0.0799
      9 C         142.6256  140.8355  166.9633 C.3     1  UNL1        0.0424
     10 C         142.7958  139.3451  166.9520 C.3     1  UNL1        0.0315
     11 C         143.6110  138.5040  166.0148 C.2     1  UNL1       -0.0289
     12 C         144.4571  138.9454  164.8577 C.2     1  UNL1       -0.0136
     13 C         144.6972  140.3370  164.3517 C.3     1  UNL1        0.0950
     14 N         144.1504  141.6308  164.8780 N.3     1  UNL1       -0.2935
     15 C         143.2284  141.8526  166.0403 C.3     1  UNL1        0.0735
     16 H         143.6635  142.0447  164.0831 H       1  UNL1        0.1236
@<TRIPOS>BOND
     1     1     2    1
     2     2     3   ar
     3     3     4   ar
     4     4     5   ar
     5     5     9    1
     6     9    10    1
     7    10    11    1
     8    11    12    2
     9    12    13    1
    10    13    14    1
    11    14    15    1
    12     5     6   ar
    13     6     7   ar
    14     7     8    1
    15     7     2   ar
    16    15     9    1
    17    14    16    1
@<TRIPOS>MOLECULE
*****
 16 17 0 0 0
SMALL
GASTEIGER

@<TRIPOS>ATOM
      1 F         137.5010  144.0905  162.6949 F       1  UNL1       -0.2033
      2 C         138.2556  143.4748  163.8357 C.ar    1  UNL1        0.1506
      3 C         139.1253  144.3305  164.7084 C.ar    1  UNL1        0.0302
      4 C         139.8799  143.7147  165.8493 C.ar    1  UNL1       -0.0019
      5 C         139.7648  142.2434  166.1174 C.ar    1  UNL1       -0.0199
      6 C         138.8952  141.3878  165.2447 C.ar    1  UNL1        0.0094
      7 C         138.1405  142.0034  164.1039 C.ar    1  UNL1        0.0847
      8 CL        137.2709  141.1478  163.2312 Cl      1  UNL1       -0.0799
      9 C         140.5194  141.6277  167.2582 C.3     1  UNL1        0.0424
     10 C         141.8951  142.1750  167.4994 C.3     1  UNL1        0.0315
     11 C         142.8897  141.7758  168.5490 C.2     1  UNL1       -0.0289
     12 C         142.7543  140.7309  169.6164 C.2     1  UNL1       -0.0136
     13 C         141.5909  139.8269  169.8981 C.3     1  UNL1        0.0950
     14 N         140.2755  139.7446  169.1818 N.3     1  UNL1       -0.2935
     15 C         139.7987  140.5461  168.0070 C.3     1  UNL1        0.0735
     16 H         139.5786  139.9148  169.9070 H       1  UNL1        0.1236
@<TRIPOS>BOND
     1     1     2    1
     2     2     3   ar
     3     3     4   ar
     4     4     5   ar
     5     5     9    1
     6     9    10    1
     7    10    11    1
     8    11    12    2
     9    12    13    1
    10    13    14    1
    11    14    15    1
    12     5     6   ar
    13     6     7   ar
    14     7     8    1
    15     7     2   ar
    16    15     9    1
    17    14    16    1
