@<TRIPOS>MOLECULE
*****
 30 32 0 0 0
SMALL
GASTEIGER

@<TRIPOS>ATOM
      1 C         140.4131  143.7100  163.5603 C.ar    1  UNL1        0.0873
      2 S         141.3265  144.2070  162.4793 S.2     1  UNL1       -0.0433
      3 C         140.5259  145.0840  161.5629 C.ar    1  UNL1        0.1669
      4 N         139.1176  145.1291  162.0776 N.ar    1  UNL1       -0.2276
      5 C         139.0479  144.2798  163.3121 C.ar    1  UNL1        0.0750
      6 C         137.8274  144.0422  164.1511 C.3     1  UNL1        0.0534
      7 N         141.0427  145.7917  160.3456 N.am    1  UNL1       -0.2484
      8 C         140.4532  145.4949  158.9986 C.2     1  UNL1        0.3060
      9 O         139.3469  144.4902  158.8689 O.2     1  UNL1       -0.2524
     10 N         140.9700  146.2026  157.7812 N.am    1  UNL1       -0.2862
     11 H         141.7688  146.4511  160.4307 H       1  UNL1        0.1583
     12 H         141.6961  146.8620  157.8662 H       1  UNL1        0.1511
     13 C         140.3806  145.9057  156.4342 C.3     1  UNL1        0.1203
     14 C         139.1461  146.6269  155.9802 C.3     1  UNL1        0.1348
     15 C         138.1963  145.9619  155.0286 C.3     1  UNL1        0.0339
     16 O         138.8615  148.0130  156.4779 O.3     1  UNL1       -0.3545
     17 C         138.7092  149.1432  155.5035 C.3     1  UNL1        0.1420
     18 C         139.6769  149.2890  154.3668 C.3     1  UNL1        0.0297
     19 C         140.2344  148.7966  153.0642 C.3     1  UNL1        0.0026
     20 C         140.7955  150.0337  153.7004 C.3     1  UNL1        0.0026
     21 C         141.1816  141.8949  165.8219 C.1     1  UNL1       -0.0577
     22 C         140.7974  142.8024  164.6912 C.1     1  UNL1       -0.0519
     23 C         140.4347  140.1825  170.6707 C.3     1  UNL1        0.0323
     24 C         141.1924  140.1311  169.3771 C.ar    1  UNL1       -0.0076
     25 C         140.8082  141.0386  168.2463 C.ar    1  UNL1        0.0067
     26 C         141.5659  140.9873  166.9528 C.ar    1  UNL1        0.0608
     27 C         142.7078  140.0284  166.7900 C.ar    1  UNL1        0.1066
     28 N         143.0920  139.1209  167.9208 N.ar    1  UNL1       -0.2478
     29 C         142.3343  139.1723  169.2144 C.ar    1  UNL1        0.0555
     30 C         142.7186  138.2647  170.3452 C.3     1  UNL1        0.0518
@<TRIPOS>BOND
     1    23    24    1
     2    24    25   ar
     3    25    26   ar
     4    26    21    1
     5    21    22    3
     6    22     1    1
     7     1     2   ar
     8     2     3   ar
     9     3     7    1
    10     7     8   am
    11     8     9    2
    12     8    10   am
    13    10    13    1
    14    13    14    1
    15    14    15    1
    16    14    16    1
    17    16    17    1
    18    17    18    1
    19    18    19    1
    20    19    20    1
    21     3     4   ar
    22     4     5   ar
    23     5     6    1
    24    26    27   ar
    25    27    28   ar
    26    28    29   ar
    27    29    30    1
    28    29    24   ar
    29     5     1   ar
    30    20    18    1
    31     7    11    1
    32    10    12    1
@<TRIPOS>MOLECULE
*****
 30 32 0 0 0
SMALL
GASTEIGER

@<TRIPOS>ATOM
      1 C         140.8137  144.0356  162.8584 C.ar    1  UNL1        0.0873
      2 S         141.7973  144.5153  161.8325 S.2     1  UNL1       -0.0433
      3 C         141.0279  145.1665  160.7217 C.ar    1  UNL1        0.1669
      4 N         139.5688  145.0893  161.0610 N.ar    1  UNL1       -0.2276
      5 C         139.4364  144.3903  162.3817 C.ar    1  UNL1        0.0750
      6 C         138.1523  144.0975  163.0994 C.3     1  UNL1        0.0534
      7 N         141.6146  145.7861  159.4882 N.am    1  UNL1       -0.2484
      8 C         141.4293  145.1236  158.1552 C.2     1  UNL1        0.3060
      9 O         140.6572  143.8413  158.0559 O.2     1  UNL1       -0.2524
     10 N         142.0159  145.7432  156.9216 N.am    1  UNL1       -0.2862
     11 H         142.1213  146.6277  159.5533 H       1  UNL1        0.1583
     12 H         142.5226  146.5848  156.9867 H       1  UNL1        0.1511
     13 C         141.8306  145.0807  155.5886 C.3     1  UNL1        0.1203
     14 C         140.9229  145.6958  154.5650 C.3     1  UNL1        0.1348
     15 C         141.4966  146.2782  153.3074 C.3     1  UNL1        0.0339
     16 O         139.4417  145.7286  154.7991 O.3     1  UNL1       -0.3545
     17 C         138.8408  146.8064  155.6520 C.3     1  UNL1        0.1420
     18 C         139.0213  148.2475  155.2771 C.3     1  UNL1        0.0297
     19 C         138.7598  149.7009  155.5405 C.3     1  UNL1        0.0026
     20 C         139.5956  149.2903  154.3645 C.3     1  UNL1        0.0026
     21 C         141.4835  142.6159  165.4150 C.1     1  UNL1       -0.0577
     22 C         141.1486  143.3257  164.1367 C.1     1  UNL1       -0.0519
     23 C         144.0647  142.4393  169.9213 C.3     1  UNL1        0.0323
     24 C         143.1090  141.8178  168.9464 C.ar    1  UNL1       -0.0076
     25 C         142.7741  142.5276  167.6682 C.ar    1  UNL1        0.0067
     26 C         141.8184  141.9060  166.6933 C.ar    1  UNL1        0.0608
     27 C         141.1976  140.5747  166.9967 C.ar    1  UNL1        0.1066
     28 N         141.5324  139.8649  168.2750 N.ar    1  UNL1       -0.2478
     29 C         142.4881  140.4865  169.2498 C.ar    1  UNL1        0.0555
     30 C         142.8230  139.7766  170.5282 C.3     1  UNL1        0.0518
@<TRIPOS>BOND
     1    23    24    1
     2    24    25   ar
     3    25    26   ar
     4    26    21    1
     5    21    22    3
     6    22     1    1
     7     1     2   ar
     8     2     3   ar
     9     3     7    1
    10     7     8   am
    11     8     9    2
    12     8    10   am
    13    10    13    1
    14    13    14    1
    15    14    15    1
    16    14    16    1
    17    16    17    1
    18    17    18    1
    19    18    19    1
    20    19    20    1
    21     3     4   ar
    22     4     5   ar
    23     5     6    1
    24    26    27   ar
    25    27    28   ar
    26    28    29   ar
    27    29    30    1
    28    29    24   ar
    29     5     1   ar
    30    20    18    1
    31     7    11    1
    32    10    12    1
@<TRIPOS>MOLECULE
*****
 30 32 0 0 0
SMALL
GASTEIGER

@<TRIPOS>ATOM
      1 C         140.5443  144.2231  163.0989 C.ar    1  UNL1        0.0873
      2 S         141.5722  144.6960  162.1141 S.2     1  UNL1       -0.0433
      3 C         140.8509  145.2839  160.9376 C.ar    1  UNL1        0.1669
      4 N         139.3772  145.1744  161.1954 N.ar    1  UNL1       -0.2276
      5 C         139.1878  144.5188  162.5312 C.ar    1  UNL1        0.0750
      6 C         137.8727  144.2126  163.1845 C.3     1  UNL1        0.0534
      7 N         141.4908  145.8772  159.7176 N.am    1  UNL1       -0.2484
      8 C         140.9485  145.5582  158.3560 C.2     1  UNL1        0.3060
      9 O         139.7662  144.6459  158.2143 O.2     1  UNL1       -0.2524
     10 N         141.5884  146.1514  157.1359 N.am    1  UNL1       -0.2862
     11 H         142.2667  146.4759  159.8106 H       1  UNL1        0.1583
     12 H         142.3644  146.7502  157.2288 H       1  UNL1        0.1511
     13 C         141.0462  145.8324  155.7742 C.3     1  UNL1        0.1203
     14 C         139.8811  146.6053  155.2309 C.3     1  UNL1        0.1348
     15 C         140.1158  147.7796  154.3277 C.3     1  UNL1        0.0339
     16 O         138.4813  146.2039  155.5909 O.3     1  UNL1       -0.3545
     17 C         137.7399  145.2197  154.7355 C.3     1  UNL1        0.1420
     18 C         137.2188  143.9476  155.3357 C.3     1  UNL1        0.0297
     19 C         136.2637  142.7914  155.3026 C.3     1  UNL1        0.0026
     20 C         137.2714  142.9004  156.4084 C.3     1  UNL1        0.0026
     21 C         141.1036  142.9156  165.7404 C.1     1  UNL1       -0.0577
     22 C         140.8240  143.5693  164.4197 C.1     1  UNL1       -0.0519
     23 C         139.4111  140.4405  169.9842 C.3     1  UNL1        0.0323
     24 C         140.5369  141.0242  169.1831 C.ar    1  UNL1       -0.0076
     25 C         140.2574  141.6780  167.8624 C.ar    1  UNL1        0.0067
     26 C         141.3832  142.2618  167.0612 C.ar    1  UNL1        0.0608
     27 C         142.7885  142.1917  167.5809 C.ar    1  UNL1        0.1066
     28 N         143.0681  141.5379  168.9016 N.ar    1  UNL1       -0.2478
     29 C         141.9423  140.9542  169.7027 C.ar    1  UNL1        0.0555
     30 C         142.2219  140.3004  171.0235 C.3     1  UNL1        0.0518
@<TRIPOS>BOND
     1    23    24    1
     2    24    25   ar
     3    25    26   ar
     4    26    21    1
     5    21    22    3
     6    22     1    1
     7     1     2   ar
     8     2     3   ar
     9     3     7    1
    10     7     8   am
    11     8     9    2
    12     8    10   am
    13    10    13    1
    14    13    14    1
    15    14    15    1
    16    14    16    1
    17    16    17    1
    18    17    18    1
    19    18    19    1
    20    19    20    1
    21     3     4   ar
    22     4     5   ar
    23     5     6    1
    24    26    27   ar
    25    27    28   ar
    26    28    29   ar
    27    29    30    1
    28    29    24   ar
    29     5     1   ar
    30    20    18    1
    31     7    11    1
    32    10    12    1
@<TRIPOS>MOLECULE
*****
 30 32 0 0 0
SMALL
GASTEIGER

@<TRIPOS>ATOM
      1 C         141.7945  139.0887  157.9911 C.ar    1  UNL1        0.0873
      2 S         140.4115  139.4720  158.4276 S.2     1  UNL1       -0.0433
      3 C         140.4273  140.9267  158.7930 C.ar    1  UNL1        0.1669
      4 N         141.8200  141.4425  158.5823 N.ar    1  UNL1       -0.2276
      5 C         142.6650  140.3065  158.0866 C.ar    1  UNL1        0.0750
      6 C         144.1242  140.3762  157.7464 C.3     1  UNL1        0.0534
      7 N         139.2560  141.7254  159.2830 N.am    1  UNL1       -0.2484
      8 C         139.1309  142.0561  160.7407 C.2     1  UNL1        0.3060
      9 O         140.1772  141.5881  161.7085 O.2     1  UNL1       -0.2524
     10 N         137.9597  142.8548  161.2309 N.am    1  UNL1       -0.2862
     11 H         138.5694  142.0325  158.6479 H       1  UNL1        0.1583
     12 H         137.2730  143.1619  160.5958 H       1  UNL1        0.1511
     13 C         137.8346  143.1855  162.6886 C.3     1  UNL1        0.1203
     14 C         138.3800  144.4806  163.2134 C.3     1  UNL1        0.1348
     15 C         138.5527  144.6780  164.6902 C.3     1  UNL1        0.0339
     16 O         138.7527  145.5781  162.2613 O.3     1  UNL1       -0.3545
     17 C         140.1405  145.6411  161.6956 C.3     1  UNL1        0.1420
     18 C         141.3091  145.1966  162.5243 C.3     1  UNL1        0.0297
     19 C         142.5163  144.3250  162.7058 C.3     1  UNL1        0.0026
     20 C         142.1260  145.2983  163.7783 C.3     1  UNL1        0.0026
     21 C         142.6664  136.3647  157.0857 C.1     1  UNL1       -0.0577
     22 C         142.2304  137.7267  157.5384 C.1     1  UNL1       -0.0519
     23 C         145.2078  131.9229  157.9866 C.3     1  UNL1        0.0323
     24 C         144.3731  132.7818  157.0835 C.ar    1  UNL1       -0.0076
     25 C         143.9371  134.1438  157.5361 C.ar    1  UNL1        0.0067
     26 C         143.1024  135.0027  156.6330 C.ar    1  UNL1        0.0608
     27 C         142.7037  134.4996  155.2773 C.ar    1  UNL1        0.1066
     28 N         143.1397  133.1377  154.8247 N.ar    1  UNL1       -0.2478
     29 C         143.9744  132.2787  155.7278 C.ar    1  UNL1        0.0555
     30 C         144.4104  130.9167  155.2751 C.3     1  UNL1        0.0518
@<TRIPOS>BOND
     1    23    24    1
     2    24    25   ar
     3    25    26   ar
     4    26    21    1
     5    21    22    3
     6    22     1    1
     7     1     2   ar
     8     2     3   ar
     9     3     7    1
    10     7     8   am
    11     8     9    2
    12     8    10   am
    13    10    13    1
    14    13    14    1
    15    14    15    1
    16    14    16    1
    17    16    17    1
    18    17    18    1
    19    18    19    1
    20    19    20    1
    21     3     4   ar
    22     4     5   ar
    23     5     6    1
    24    26    27   ar
    25    27    28   ar
    26    28    29   ar
    27    29    30    1
    28    29    24   ar
    29     5     1   ar
    30    20    18    1
    31     7    11    1
    32    10    12    1
@<TRIPOS>MOLECULE
*****
 30 32 0 0 0
SMALL
GASTEIGER

@<TRIPOS>ATOM
      1 C         138.4362  142.4069  156.7679 C.ar    1  UNL1        0.0873
      2 S         139.2800  141.6139  157.7213 S.2     1  UNL1       -0.0433
      3 C         138.5769  140.3174  157.9947 C.ar    1  UNL1        0.1669
      4 N         137.2983  140.3092  157.2102 N.ar    1  UNL1       -0.2276
      5 C         137.2114  141.6006  156.4519 C.ar    1  UNL1        0.0750
      6 C         136.0956  142.0131  155.5383 C.3     1  UNL1        0.0534
      7 N         139.0662  139.2217  158.8945 N.am    1  UNL1       -0.2484
      8 C         138.5273  139.0996  160.2891 C.2     1  UNL1        0.3060
      9 O         137.4990  140.0733  160.7837 O.2     1  UNL1       -0.2524
     10 N         139.0166  138.0038  161.1890 N.am    1  UNL1       -0.2862
     11 H         139.7411  138.5827  158.5699 H       1  UNL1        0.1583
     12 H         139.6915  137.3648  160.8644 H       1  UNL1        0.1511
     13 C         138.4778  137.8817  162.5835 C.3     1  UNL1        0.1203
     14 C         139.2344  138.4754  163.7347 C.3     1  UNL1        0.1348
     15 C         140.0014  137.5852  164.6669 C.3     1  UNL1        0.0339
     16 O         139.2240  139.9593  163.9535 O.3     1  UNL1       -0.3545
     17 C         137.9205  140.6986  164.0193 C.3     1  UNL1        0.1420
     18 C         137.9016  142.1955  163.9247 C.3     1  UNL1        0.0297
     19 C         138.0961  143.5399  164.5609 C.3     1  UNL1        0.0026
     20 C         137.6745  143.4438  163.1246 C.3     1  UNL1        0.0026
     21 C         139.0841  145.1278  155.6832 C.1     1  UNL1       -0.0577
     22 C         138.7602  143.7674  156.2255 C.1     1  UNL1       -0.0519
     23 C         138.4722  150.2862  155.8116 C.3     1  UNL1        0.0323
     24 C         139.1021  149.0675  155.2051 C.ar    1  UNL1       -0.0076
     25 C         138.7782  147.7070  155.7474 C.ar    1  UNL1        0.0067
     26 C         139.4081  146.4883  155.1408 C.ar    1  UNL1        0.0608
     27 C         140.3620  146.6301  153.9919 C.ar    1  UNL1        0.1066
     28 N         140.6859  147.9906  153.4496 N.ar    1  UNL1       -0.2478
     29 C         140.0560  149.2093  154.0562 C.ar    1  UNL1        0.0555
     30 C         140.3799  150.5698  153.5138 C.3     1  UNL1        0.0518
@<TRIPOS>BOND
     1    23    24    1
     2    24    25   ar
     3    25    26   ar
     4    26    21    1
     5    21    22    3
     6    22     1    1
     7     1     2   ar
     8     2     3   ar
     9     3     7    1
    10     7     8   am
    11     8     9    2
    12     8    10   am
    13    10    13    1
    14    13    14    1
    15    14    15    1
    16    14    16    1
    17    16    17    1
    18    17    18    1
    19    18    19    1
    20    19    20    1
    21     3     4   ar
    22     4     5   ar
    23     5     6    1
    24    26    27   ar
    25    27    28   ar
    26    28    29   ar
    27    29    30    1
    28    29    24   ar
    29     5     1   ar
    30    20    18    1
    31     7    11    1
    32    10    12    1
@<TRIPOS>MOLECULE
*****
 30 32 0 0 0
SMALL
GASTEIGER

@<TRIPOS>ATOM
      1 C         140.6769  143.9703  162.7497 C.ar    1  UNL1        0.0873
      2 S         141.7497  144.3537  161.7740 S.2     1  UNL1       -0.0433
      3 C         141.1121  145.1465  160.6719 C.ar    1  UNL1        0.1669
      4 N         139.6451  145.2531  160.9663 N.ar    1  UNL1       -0.2276
      5 C         139.3761  144.5261  162.2506 C.ar    1  UNL1        0.0750
      6 C         138.0409  144.3805  162.9184 C.3     1  UNL1        0.0534
      7 N         141.8175  145.7303  159.4838 N.am    1  UNL1       -0.2484
      8 C         141.5997  145.1449  158.1200 C.2     1  UNL1        0.3060
      9 O         140.6765  143.9758  157.9443 O.2     1  UNL1       -0.2524
     10 N         142.3051  145.7286  156.9319 N.am    1  UNL1       -0.2862
     11 H         142.4234  146.4976  159.5991 H       1  UNL1        0.1583
     12 H         142.9110  146.4960  157.0471 H       1  UNL1        0.1511
     13 C         142.0874  145.1433  155.5681 C.3     1  UNL1        0.1203
     14 C         143.0528  144.1332  155.0225 C.3     1  UNL1        0.1348
     15 C         143.5004  142.9853  155.8780 C.3     1  UNL1        0.0339
     16 O         143.5707  144.2711  153.6215 O.3     1  UNL1       -0.3545
     17 C         144.7738  143.4882  153.1862 C.3     1  UNL1        0.1420
     18 C         146.1511  144.0006  153.4868 C.3     1  UNL1        0.0297
     19 C         147.1582  145.1120  153.4604 C.3     1  UNL1        0.0026
     20 C         147.5297  143.7768  154.0341 C.3     1  UNL1        0.0026
     21 C         141.0645  142.3723  165.2590 C.1     1  UNL1       -0.0577
     22 C         140.8707  143.1713  164.0044 C.1     1  UNL1       -0.0519
     23 C         139.1787  140.4335  169.6957 C.3     1  UNL1        0.0323
     24 C         140.3154  140.6039  168.7320 C.ar    1  UNL1       -0.0076
     25 C         140.1216  141.4029  167.4774 C.ar    1  UNL1        0.0067
     26 C         141.2584  141.5733  166.5136 C.ar    1  UNL1        0.0608
     27 C         142.5889  140.9448  166.8045 C.ar    1  UNL1        0.1066
     28 N         142.7826  140.1458  168.0591 N.ar    1  UNL1       -0.2478
     29 C         141.6459  139.9754  169.0228 C.ar    1  UNL1        0.0555
     30 C         141.8397  139.1764  170.2775 C.3     1  UNL1        0.0518
@<TRIPOS>BOND
     1    23    24    1
     2    24    25   ar
     3    25    26   ar
     4    26    21    1
     5    21    22    3
     6    22     1    1
     7     1     2   ar
     8     2     3   ar
     9     3     7    1
    10     7     8   am
    11     8     9    2
    12     8    10   am
    13    10    13    1
    14    13    14    1
    15    14    15    1
    16    14    16    1
    17    16    17    1
    18    17    18    1
    19    18    19    1
    20    19    20    1
    21     3     4   ar
    22     4     5   ar
    23     5     6    1
    24    26    27   ar
    25    27    28   ar
    26    28    29   ar
    27    29    30    1
    28    29    24   ar
    29     5     1   ar
    30    20    18    1
    31     7    11    1
    32    10    12    1
@<TRIPOS>MOLECULE
*****
 30 32 0 0 0
SMALL
GASTEIGER

@<TRIPOS>ATOM
      1 C         138.3748  142.4576  156.6998 C.ar    1  UNL1        0.0873
      2 S         139.2138  141.6537  157.6484 S.2     1  UNL1       -0.0433
      3 C         138.4994  140.3628  157.9191 C.ar    1  UNL1        0.1669
      4 N         137.2189  140.3689  157.1378 N.ar    1  UNL1       -0.2276
      5 C         137.1419  141.6637  156.3842 C.ar    1  UNL1        0.0750
      6 C         136.0277  142.0895  155.4747 C.3     1  UNL1        0.0534
      7 N         138.9809  139.2596  158.8140 N.am    1  UNL1       -0.2484
      8 C         138.4115  139.1105  160.1937 C.2     1  UNL1        0.3060
      9 O         137.3604  140.0646  160.6785 O.2     1  UNL1       -0.2524
     10 N         138.8929  138.0072  161.0887 N.am    1  UNL1       -0.2862
     11 H         139.6707  138.6334  158.4958 H       1  UNL1        0.1583
     12 H         139.5827  137.3809  160.7705 H       1  UNL1        0.1511
     13 C         138.3235  137.8580  162.4683 C.3     1  UNL1        0.1203
     14 C         139.2402  137.6995  163.6450 C.3     1  UNL1        0.1348
     15 C         138.6901  137.7676  165.0387 C.3     1  UNL1        0.0339
     16 O         140.7069  137.4728  163.4278 O.3     1  UNL1       -0.3545
     17 C         141.5894  137.1108  164.5855 C.3     1  UNL1        0.1420
     18 C         142.5342  138.1272  165.1549 C.3     1  UNL1        0.0297
     19 C         143.1467  139.4959  165.1175 C.3     1  UNL1        0.0026
     20 C         143.5583  138.5189  166.1785 C.3     1  UNL1        0.0026
     21 C         139.0449  145.1763  155.6228 C.1     1  UNL1       -0.0577
     22 C         138.7099  143.8170  156.1613 C.1     1  UNL1       -0.0519
     23 C         138.4859  150.3401  155.7748 C.3     1  UNL1        0.0323
     24 C         139.1005  149.1175  155.1602 C.ar    1  UNL1       -0.0076
     25 C         138.7654  147.7582  155.6987 C.ar    1  UNL1        0.0067
     26 C         139.3800  146.5356  155.0842 C.ar    1  UNL1        0.0608
     27 C         140.3296  146.6724  153.9312 C.ar    1  UNL1        0.1066
     28 N         140.6647  148.0317  153.3927 N.ar    1  UNL1       -0.2478
     29 C         140.0501  149.2542  154.0072 C.ar    1  UNL1        0.0555
     30 C         140.3852  150.6136  153.4687 C.3     1  UNL1        0.0518
@<TRIPOS>BOND
     1    23    24    1
     2    24    25   ar
     3    25    26   ar
     4    26    21    1
     5    21    22    3
     6    22     1    1
     7     1     2   ar
     8     2     3   ar
     9     3     7    1
    10     7     8   am
    11     8     9    2
    12     8    10   am
    13    10    13    1
    14    13    14    1
    15    14    15    1
    16    14    16    1
    17    16    17    1
    18    17    18    1
    19    18    19    1
    20    19    20    1
    21     3     4   ar
    22     4     5   ar
    23     5     6    1
    24    26    27   ar
    25    27    28   ar
    26    28    29   ar
    27    29    30    1
    28    29    24   ar
    29     5     1   ar
    30    20    18    1
    31     7    11    1
    32    10    12    1
@<TRIPOS>MOLECULE
*****
 30 32 0 0 0
SMALL
GASTEIGER

@<TRIPOS>ATOM
      1 C         140.4552  144.1159  163.0481 C.ar    1  UNL1        0.0873
      2 S         141.5697  144.4302  162.0946 S.2     1  UNL1       -0.0433
      3 C         140.9625  144.9701  160.8337 C.ar    1  UNL1        0.1669
      4 N         139.4727  144.9895  161.0079 N.ar    1  UNL1       -0.2276
      5 C         139.1592  144.4615  162.3766 C.ar    1  UNL1        0.0750
      6 C         137.7901  144.3065  162.9695 C.3     1  UNL1        0.0534
      7 N         141.7132  145.4129  159.6130 N.am    1  UNL1       -0.2484
      8 C         141.9234  144.4589  158.4747 C.2     1  UNL1        0.3060
      9 O         141.3829  143.0620  158.5572 O.2     1  UNL1       -0.2524
     10 N         142.6742  144.9016  157.2539 N.am    1  UNL1       -0.2862
     11 H         142.0680  146.3297  159.5589 H       1  UNL1        0.1583
     12 H         143.0289  145.8184  157.1997 H       1  UNL1        0.1511
     13 C         142.8844  143.9476  156.1156 C.3     1  UNL1        0.1203
     14 C         142.0892  144.0997  154.8529 C.3     1  UNL1        0.1348
     15 C         142.4332  145.1848  153.8761 C.3     1  UNL1        0.0339
     16 O         140.9499  143.1668  154.5670 O.3     1  UNL1       -0.3545
     17 C         139.6173  143.3884  155.2189 C.3     1  UNL1        0.1420
     18 C         139.0391  144.7705  155.2927 C.3     1  UNL1        0.0297
     19 C         139.1668  146.2129  155.6840 C.3     1  UNL1        0.0026
     20 C         137.9098  145.7220  155.0291 C.3     1  UNL1        0.0026
     21 C         140.7640  142.9931  165.8129 C.1     1  UNL1       -0.0577
     22 C         140.6096  143.5545  164.4305 C.1     1  UNL1       -0.0519
     23 C         142.5407  139.2870  168.9922 C.3     1  UNL1        0.0323
     24 C         141.8067  140.5786  168.7850 C.ar    1  UNL1       -0.0076
     25 C         141.6524  141.1400  167.4026 C.ar    1  UNL1        0.0067
     26 C         140.9183  142.4317  167.1953 C.ar    1  UNL1        0.0608
     27 C         140.3387  143.1619  168.3704 C.ar    1  UNL1        0.1066
     28 N         140.4931  142.6004  169.7527 N.ar    1  UNL1       -0.2478
     29 C         141.2271  141.3088  169.9600 C.ar    1  UNL1        0.0555
     30 C         141.3815  140.7474  171.3425 C.3     1  UNL1        0.0518
@<TRIPOS>BOND
     1    23    24    1
     2    24    25   ar
     3    25    26   ar
     4    26    21    1
     5    21    22    3
     6    22     1    1
     7     1     2   ar
     8     2     3   ar
     9     3     7    1
    10     7     8   am
    11     8     9    2
    12     8    10   am
    13    10    13    1
    14    13    14    1
    15    14    15    1
    16    14    16    1
    17    16    17    1
    18    17    18    1
    19    18    19    1
    20    19    20    1
    21     3     4   ar
    22     4     5   ar
    23     5     6    1
    24    26    27   ar
    25    27    28   ar
    26    28    29   ar
    27    29    30    1
    28    29    24   ar
    29     5     1   ar
    30    20    18    1
    31     7    11    1
    32    10    12    1
@<TRIPOS>MOLECULE
*****
 30 32 0 0 0
SMALL
GASTEIGER

@<TRIPOS>ATOM
      1 C         139.5572  142.2300  162.4683 C.ar    1  UNL1        0.0873
      2 S         140.1168  141.6561  161.2005 S.2     1  UNL1       -0.0433
      3 C         139.3564  142.2455  160.0497 C.ar    1  UNL1        0.1669
      4 N         138.3268  143.1837  160.6063 N.ar    1  UNL1       -0.2276
      5 C         138.4510  143.1741  162.1012 C.ar    1  UNL1        0.0750
      6 C         137.6155  143.9690  163.0604 C.3     1  UNL1        0.0534
      7 N         139.5853  141.9488  158.5973 N.am    1  UNL1       -0.2484
      8 C         138.6281  141.0665  157.8521 C.2     1  UNL1        0.3060
      9 O         137.4419  140.4808  158.5594 O.2     1  UNL1       -0.2524
     10 N         138.8569  140.7697  156.3997 N.am    1  UNL1       -0.2862
     11 H         140.3638  142.3332  158.1331 H       1  UNL1        0.1583
     12 H         139.6354  141.1541  155.9355 H       1  UNL1        0.1511
     13 C         137.8998  139.8874  155.6545 C.3     1  UNL1        0.1203
     14 C         136.5336  140.3946  155.2990 C.3     1  UNL1        0.1348
     15 C         136.3798  141.7258  154.6252 C.3     1  UNL1        0.0339
     16 O         135.3213  139.5706  155.6174 O.3     1  UNL1       -0.3545
     17 C         134.3398  140.0470  156.6467 C.3     1  UNL1        0.1420
     18 C         132.9834  140.5280  156.2237 C.3     1  UNL1        0.0297
     19 C         132.1278  141.4068  155.3602 C.3     1  UNL1        0.0026
     20 C         131.4899  140.4823  156.3544 C.3     1  UNL1        0.0026
     21 C         140.4874  141.6002  165.2501 C.1     1  UNL1       -0.0577
     22 C         140.0223  141.9151  163.8593 C.1     1  UNL1       -0.0519
     23 C         143.7428  142.4566  169.2085 C.3     1  UNL1        0.0323
     24 C         142.5802  141.7135  168.6202 C.ar    1  UNL1       -0.0076
     25 C         142.1151  142.0284  167.2294 C.ar    1  UNL1        0.0067
     26 C         140.9524  141.2853  166.6411 C.ar    1  UNL1        0.0608
     27 C         140.2548  140.2274  167.4436 C.ar    1  UNL1        0.1066
     28 N         140.7199  139.9126  168.8345 N.ar    1  UNL1       -0.2478
     29 C         141.8826  140.6556  169.4228 C.ar    1  UNL1        0.0555
     30 C         142.3476  140.3407  170.8137 C.3     1  UNL1        0.0518
@<TRIPOS>BOND
     1    23    24    1
     2    24    25   ar
     3    25    26   ar
     4    26    21    1
     5    21    22    3
     6    22     1    1
     7     1     2   ar
     8     2     3   ar
     9     3     7    1
    10     7     8   am
    11     8     9    2
    12     8    10   am
    13    10    13    1
    14    13    14    1
    15    14    15    1
    16    14    16    1
    17    16    17    1
    18    17    18    1
    19    18    19    1
    20    19    20    1
    21     3     4   ar
    22     4     5   ar
    23     5     6    1
    24    26    27   ar
    25    27    28   ar
    26    28    29   ar
    27    29    30    1
    28    29    24   ar
    29     5     1   ar
    30    20    18    1
    31     7    11    1
    32    10    12    1
