@<TRIPOS>MOLECULE
*****
 34 36 0 0 0
SMALL
GASTEIGER

@<TRIPOS>ATOM
      1 C         143.8087  138.7346  165.9816 C.3     1  UNL1        0.0337
      2 C         142.3443  139.0168  165.8204 C.3     1  UNL1        0.1467
      3 N         142.4220  137.9731  164.7459 N.am    1  UNL1       -0.2806
      4 C         141.0534  137.8162  164.1524 C.2     1  UNL1        0.3106
      5 O         140.6748  136.8773  163.0455 O.2     1  UNL1       -0.2521
      6 N         140.1299  138.7628  164.8601 N.am    1  UNL1       -0.2050
      7 C         140.9277  139.5049  165.8910 C.2     1  UNL1        0.2527
      8 O         140.4013  140.5514  166.8280 O.2     1  UNL1       -0.2723
      9 H         143.2295  137.4780  164.4774 H       1  UNL1        0.1516
     10 C         142.5728  140.0016  166.9287 C.ar    1  UNL1        0.0021
     11 C         142.8564  141.4391  166.6080 C.ar    1  UNL1       -0.0009
     12 C         143.0849  142.4238  167.7162 C.ar    1  UNL1        0.0196
     13 C         143.0298  141.9709  169.1451 C.ar    1  UNL1        0.1217
     14 C         142.7462  140.5333  169.4658 C.ar    1  UNL1        0.0196
     15 C         142.5177  139.5486  168.3576 C.ar    1  UNL1       -0.0009
     16 S         143.2583  142.9556  170.2534 S.O2    1  UNL1        0.0572
     17 N         143.4869  143.9403  171.3616 N.3     1  UNL1       -0.2035
     18 O         141.7909  142.9465  170.5641 O.2     1  UNL1       -0.1532
     19 O         144.7257  142.9647  169.9427 O.2     1  UNL1       -0.1532
     20 H         142.5979  144.1577  171.8120 H       1  UNL1        0.1442
     21 H         143.8921  144.7946  170.9791 H       1  UNL1        0.1442
     22 C         138.6656  138.9369  164.5852 C.3     1  UNL1        0.1714
     23 C         138.2111  139.5011  163.2717 C.2     1  UNL1        0.1935
     24 O         137.7495  138.5819  162.1799 O.2     1  UNL1       -0.2895
     25 C         138.2181  140.9846  163.0501 C.ar    1  UNL1        0.0364
     26 C         138.0972  141.5359  161.6603 C.ar    1  UNL1        0.0029
     27 C         138.1043  143.0194  161.4386 C.ar    1  UNL1        0.0000
     28 C         138.2322  143.9517  162.6067 C.ar    1  UNL1        0.0039
     29 C         138.3531  143.4004  163.9965 C.ar    1  UNL1        0.0715
     30 C         138.3460  141.9170  164.2182 C.ar    1  UNL1        0.0067
     31 C         138.4810  144.3327  165.1647 C.3     1  UNL1        0.4186
     32 F         138.6090  145.2649  166.3328 F       1  UNL1       -0.1659
     33 F         139.9712  144.1640  165.1360 F       1  UNL1       -0.1659
     34 F         136.9908  144.5013  165.1933 F       1  UNL1       -0.1659
@<TRIPOS>BOND
     1     1     2    1
     2     2    10    1
     3    10    11   ar
     4    11    12   ar
     5    12    13   ar
     6    13    16    1
     7    16    17    1
     8    16    18    2
     9    16    19    2
    10    13    14   ar
    11    14    15   ar
    12     2     3    1
    13     3     4   am
    14     4     5    2
    15     4     6   am
    16     6    22    1
    17    22    23    1
    18    23    24    2
    19    23    25    1
    20    25    26   ar
    21    26    27   ar
    22    27    28   ar
    23    28    29   ar
    24    29    31    1
    25    31    32    1
    26    31    33    1
    27    31    34    1
    28    29    30   ar
    29     6     7   am
    30     7     8    2
    31     7     2    1
    32    15    10   ar
    33    30    25   ar
    34    17    20    1
    35    17    21    1
    36     3     9    1
@<TRIPOS>MOLECULE
*****
 34 36 0 0 0
SMALL
GASTEIGER

@<TRIPOS>ATOM
      1 C         143.5717  138.4575  166.2906 C.3     1  UNL1        0.0337
      2 C         142.2210  138.9806  165.9011 C.3     1  UNL1        0.1467
      3 N         142.2574  137.8728  164.8905 N.am    1  UNL1       -0.2806
      4 C         140.9806  137.9200  164.1047 C.2     1  UNL1        0.3106
      5 O         140.5967  136.9930  162.9897 O.2     1  UNL1       -0.2521
      6 N         140.1550  139.0570  164.6297 N.am    1  UNL1       -0.2050
      7 C         140.9216  139.7125  165.7399 C.2     1  UNL1        0.2527
      8 O         140.4684  140.8927  166.5473 O.2     1  UNL1       -0.2723
      9 H         142.9906  137.2279  164.7649 H       1  UNL1        0.1516
     10 C         142.4670  139.9791  166.9932 C.ar    1  UNL1        0.0021
     11 C         142.2008  139.6085  168.4221 C.ar    1  UNL1       -0.0009
     12 C         142.4468  140.6070  169.5141 C.ar    1  UNL1        0.0196
     13 C         142.9590  141.9760  169.1772 C.ar    1  UNL1        0.1217
     14 C         143.2251  142.3466  167.7483 C.ar    1  UNL1        0.0196
     15 C         142.9791  141.3481  166.6563 C.ar    1  UNL1       -0.0009
     16 S         143.2050  142.9745  170.2693 S.O2    1  UNL1        0.0572
     17 N         143.4510  143.9729  171.3613 N.3     1  UNL1       -0.2035
     18 O         141.7354  143.0106  170.5674 O.2     1  UNL1       -0.1532
     19 O         144.6746  142.9384  169.9712 O.2     1  UNL1       -0.1532
     20 H         142.5646  144.2224  171.8000 H       1  UNL1        0.1442
     21 H         143.8823  144.8089  170.9669 H       1  UNL1        0.1442
     22 C         138.8006  139.4666  164.1319 C.3     1  UNL1        0.1714
     23 C         138.6682  140.6184  163.1801 C.2     1  UNL1        0.1935
     24 O         138.3720  140.3644  161.7317 O.2     1  UNL1       -0.2895
     25 C         138.8320  142.0243  163.6767 C.ar    1  UNL1        0.0364
     26 C         137.6779  142.7301  164.3247 C.ar    1  UNL1        0.0029
     27 C         137.8417  144.1359  164.8214 C.ar    1  UNL1        0.0000
     28 C         139.1596  144.8361  164.6700 C.ar    1  UNL1        0.0039
     29 C         140.3137  144.1304  164.0219 C.ar    1  UNL1        0.0715
     30 C         140.1499  142.7245  163.5253 C.ar    1  UNL1        0.0067
     31 C         141.6317  144.8305  163.8704 C.3     1  UNL1        0.4186
     32 F         142.9495  145.5307  163.7189 F       1  UNL1       -0.1659
     33 F         140.9950  145.8299  162.9507 F       1  UNL1       -0.1659
     34 F         142.2683  143.8311  164.7901 F       1  UNL1       -0.1659
@<TRIPOS>BOND
     1     1     2    1
     2     2    10    1
     3    10    11   ar
     4    11    12   ar
     5    12    13   ar
     6    13    16    1
     7    16    17    1
     8    16    18    2
     9    16    19    2
    10    13    14   ar
    11    14    15   ar
    12     2     3    1
    13     3     4   am
    14     4     5    2
    15     4     6   am
    16     6    22    1
    17    22    23    1
    18    23    24    2
    19    23    25    1
    20    25    26   ar
    21    26    27   ar
    22    27    28   ar
    23    28    29   ar
    24    29    31    1
    25    31    32    1
    26    31    33    1
    27    31    34    1
    28    29    30   ar
    29     6     7   am
    30     7     8    2
    31     7     2    1
    32    15    10   ar
    33    30    25   ar
    34    17    20    1
    35    17    21    1
    36     3     9    1
@<TRIPOS>MOLECULE
*****
 34 36 0 0 0
SMALL
GASTEIGER

@<TRIPOS>ATOM
      1 C         138.8730  138.8372  165.8199 C.3     1  UNL1        0.0337
      2 C         139.0675  140.3166  165.6665 C.3     1  UNL1        0.1467
      3 N         138.0898  140.1693  164.5385 N.am    1  UNL1       -0.2806
      4 C         137.8760  141.5237  163.9306 C.2     1  UNL1        0.3106
      5 O         136.9748  141.8385  162.7735 O.2     1  UNL1       -0.2521
      6 N         138.7215  142.5082  164.6827 N.am    1  UNL1       -0.2050
      7 C         139.4579  141.7621  165.7556 C.2     1  UNL1        0.2527
      8 O         140.4165  142.3572  166.7442 O.2     1  UNL1       -0.2723
      9 H         137.6633  139.3308  164.2482 H       1  UNL1        0.1516
     10 C         140.0046  140.1546  166.8266 C.ar    1  UNL1        0.0021
     11 C         141.4608  139.8901  166.5831 C.ar    1  UNL1       -0.0009
     12 C         142.3978  139.7282  167.7432 C.ar    1  UNL1        0.0196
     13 C         141.8785  139.8307  169.1467 C.ar    1  UNL1        0.1217
     14 C         140.4223  140.0952  169.3902 C.ar    1  UNL1        0.0196
     15 C         139.4853  140.2571  168.2301 C.ar    1  UNL1       -0.0009
     16 S         142.8156  139.6687  170.3068 S.O2    1  UNL1        0.0572
     17 N         143.7526  139.5067  171.4668 N.3     1  UNL1       -0.2035
     18 O         142.5915  141.1020  170.6880 O.2     1  UNL1       -0.1532
     19 O         143.0397  138.2354  169.9256 O.2     1  UNL1       -0.1532
     20 H         143.8214  140.3889  171.9741 H       1  UNL1        0.1442
     21 H         144.6752  139.2389  171.1238 H       1  UNL1        0.1442
     22 C         138.8144  143.9803  164.4100 C.3     1  UNL1        0.1714
     23 C         139.4900  144.4709  163.1638 C.2     1  UNL1        0.1935
     24 O         138.7061  145.2303  162.1349 O.2     1  UNL1       -0.2895
     25 C         140.9497  144.2021  162.9467 C.ar    1  UNL1        0.0364
     26 C         141.4611  143.9080  161.5676 C.ar    1  UNL1        0.0029
     27 C         142.9207  143.6392  161.3504 C.ar    1  UNL1        0.0000
     28 C         143.8690  143.6645  162.5123 C.ar    1  UNL1        0.0039
     29 C         143.3576  143.9586  163.8915 C.ar    1  UNL1        0.0715
     30 C         141.8980  144.2274  164.1087 C.ar    1  UNL1        0.0067
     31 C         144.3059  143.9839  165.0535 C.3     1  UNL1        0.4186
     32 F         145.2541  144.0091  166.2155 F       1  UNL1       -0.1659
     33 F         144.2888  142.4847  165.1000 F       1  UNL1       -0.1659
     34 F         144.3229  145.4830  165.0069 F       1  UNL1       -0.1659
@<TRIPOS>BOND
     1     1     2    1
     2     2    10    1
     3    10    11   ar
     4    11    12   ar
     5    12    13   ar
     6    13    16    1
     7    16    17    1
     8    16    18    2
     9    16    19    2
    10    13    14   ar
    11    14    15   ar
    12     2     3    1
    13     3     4   am
    14     4     5    2
    15     4     6   am
    16     6    22    1
    17    22    23    1
    18    23    24    2
    19    23    25    1
    20    25    26   ar
    21    26    27   ar
    22    27    28   ar
    23    28    29   ar
    24    29    31    1
    25    31    32    1
    26    31    33    1
    27    31    34    1
    28    29    30   ar
    29     6     7   am
    30     7     8    2
    31     7     2    1
    32    15    10   ar
    33    30    25   ar
    34    17    20    1
    35    17    21    1
    36     3     9    1
@<TRIPOS>MOLECULE
*****
 34 36 0 0 0
SMALL
GASTEIGER

@<TRIPOS>ATOM
      1 C         138.5904  138.7553  166.1617 C.3     1  UNL1        0.0337
      2 C         138.9357  140.1739  165.8178 C.3     1  UNL1        0.1467
      3 N         137.8810  140.0095  164.7640 N.am    1  UNL1       -0.2806
      4 C         137.7799  141.2988  164.0043 C.2     1  UNL1        0.3106
      5 O         136.8498  141.5778  162.8610 O.2     1  UNL1       -0.2521
      6 N         138.7721  142.2601  164.5884 N.am    1  UNL1       -0.2050
      7 C         139.4865  141.5649  165.7093 C.2     1  UNL1        0.2527
      8 O         140.5627  142.1568  166.5704 O.2     1  UNL1       -0.2723
      9 H         137.3485  139.1978  164.5999 H       1  UNL1        0.1516
     10 C         139.9183  140.0418  166.9435 C.ar    1  UNL1        0.0021
     11 C         139.4715  140.2607  168.3586 C.ar    1  UNL1       -0.0009
     12 C         140.4541  140.1285  169.4842 C.ar    1  UNL1        0.0196
     13 C         141.8834  139.7774  169.1948 C.ar    1  UNL1        0.1217
     14 C         142.3302  139.5585  167.7797 C.ar    1  UNL1        0.0196
     15 C         141.3476  139.6907  166.6541 C.ar    1  UNL1       -0.0009
     16 S         142.8660  139.6453  170.3205 S.O2    1  UNL1        0.0572
     17 N         143.8485  139.5131  171.4461 N.3     1  UNL1       -0.2035
     18 O         142.6592  141.0891  170.6706 O.2     1  UNL1       -0.1532
     19 O         143.0728  138.2015  169.9704 O.2     1  UNL1       -0.1532
     20 H         143.9386  140.4088  171.9257 H       1  UNL1        0.1442
     21 H         144.7562  139.2338  171.0740 H       1  UNL1        0.1442
     22 C         139.0085  143.6693  164.1319 C.3     1  UNL1        0.1714
     23 C         140.0707  143.9594  163.1132 C.2     1  UNL1        0.1935
     24 O         139.6868  144.2687  161.6965 O.2     1  UNL1       -0.2895
     25 C         141.5167  143.9402  163.5113 C.ar    1  UNL1        0.0364
     26 C         142.2395  145.2280  163.7740 C.ar    1  UNL1        0.0029
     27 C         143.6856  145.2088  164.1721 C.ar    1  UNL1        0.0000
     28 C         144.4089  143.9018  164.3075 C.ar    1  UNL1        0.0039
     29 C         143.6862  142.6139  164.0448 C.ar    1  UNL1        0.0715
     30 C         142.2402  142.6331  163.6468 C.ar    1  UNL1        0.0067
     31 C         144.4095  141.3068  164.1803 C.3     1  UNL1        0.4186
     32 F         145.1329  139.9998  164.3157 F       1  UNL1       -0.1659
     33 F         145.7068  142.0417  164.3441 F       1  UNL1       -0.1659
     34 F         143.1122  140.5719  164.0164 F       1  UNL1       -0.1659
@<TRIPOS>BOND
     1     1     2    1
     2     2    10    1
     3    10    11   ar
     4    11    12   ar
     5    12    13   ar
     6    13    16    1
     7    16    17    1
     8    16    18    2
     9    16    19    2
    10    13    14   ar
    11    14    15   ar
    12     2     3    1
    13     3     4   am
    14     4     5    2
    15     4     6   am
    16     6    22    1
    17    22    23    1
    18    23    24    2
    19    23    25    1
    20    25    26   ar
    21    26    27   ar
    22    27    28   ar
    23    28    29   ar
    24    29    31    1
    25    31    32    1
    26    31    33    1
    27    31    34    1
    28    29    30   ar
    29     6     7   am
    30     7     8    2
    31     7     2    1
    32    15    10   ar
    33    30    25   ar
    34    17    20    1
    35    17    21    1
    36     3     9    1
@<TRIPOS>MOLECULE
*****
 34 36 0 0 0
SMALL
GASTEIGER

@<TRIPOS>ATOM
      1 C         144.3681  140.4837  164.6528 C.3     1  UNL1        0.0337
      2 C         142.9838  141.0056  164.4051 C.3     1  UNL1        0.1467
      3 N         143.3899  140.9473  162.9623 N.am    1  UNL1       -0.2806
      4 C         142.2321  141.4224  162.1354 C.2     1  UNL1        0.3106
      5 O         142.2014  141.5272  160.6394 O.2     1  UNL1       -0.2521
      6 N         141.1106  141.7745  163.0671 N.am    1  UNL1       -0.2050
      7 C         141.5752  141.5169  164.4699 C.2     1  UNL1        0.2527
      8 O         140.7720  141.7327  165.7183 O.2     1  UNL1       -0.2723
      9 H         144.2630  140.6494  162.6185 H       1  UNL1        0.1516
     10 C         142.8672  140.9549  165.8998 C.ar    1  UNL1        0.0021
     11 C         142.4825  139.6740  166.5790 C.ar    1  UNL1       -0.0009
     12 C         142.3659  139.6233  168.0735 C.ar    1  UNL1        0.0196
     13 C         142.6340  140.8534  168.8889 C.ar    1  UNL1        0.1217
     14 C         143.0188  142.1343  168.2097 C.ar    1  UNL1        0.0196
     15 C         143.1354  142.1850  166.7152 C.ar    1  UNL1       -0.0009
     16 S         142.5174  140.8027  170.3836 S.O2    1  UNL1        0.0572
     17 N         142.4008  140.7520  171.8781 N.3     1  UNL1       -0.2035
     18 O         143.2619  139.5006  170.3975 O.2     1  UNL1       -0.1532
     19 O         141.7730  142.1048  170.3697 O.2     1  UNL1       -0.1532
     20 H         142.8516  139.9057  172.2258 H       1  UNL1        0.1442
     21 H         141.4156  140.7454  172.1423 H       1  UNL1        0.1442
     22 C         139.7613  142.2931  162.6664 C.3     1  UNL1        0.1714
     23 C         138.5534  141.4117  162.7856 C.2     1  UNL1        0.1935
     24 O         137.2717  141.8004  162.1102 O.2     1  UNL1       -0.2895
     25 C         138.6273  140.1417  163.5803 C.ar    1  UNL1        0.0364
     26 C         139.0983  138.8755  162.9286 C.ar    1  UNL1        0.0029
     27 C         139.1721  137.6054  163.7232 C.ar    1  UNL1        0.0000
     28 C         138.7750  137.6015  165.1697 C.ar    1  UNL1        0.0039
     29 C         138.3040  138.8678  165.8214 C.ar    1  UNL1        0.0715
     30 C         138.2301  140.1378  165.0269 C.ar    1  UNL1        0.0067
     31 C         137.9068  138.8640  167.2680 C.3     1  UNL1        0.4186
     32 F         137.5097  138.8602  168.7144 F       1  UNL1       -0.1659
     33 F         138.8652  139.9867  167.5340 F       1  UNL1       -0.1659
     34 F         136.9484  137.7412  167.0018 F       1  UNL1       -0.1659
@<TRIPOS>BOND
     1     1     2    1
     2     2    10    1
     3    10    11   ar
     4    11    12   ar
     5    12    13   ar
     6    13    16    1
     7    16    17    1
     8    16    18    2
     9    16    19    2
    10    13    14   ar
    11    14    15   ar
    12     2     3    1
    13     3     4   am
    14     4     5    2
    15     4     6   am
    16     6    22    1
    17    22    23    1
    18    23    24    2
    19    23    25    1
    20    25    26   ar
    21    26    27   ar
    22    27    28   ar
    23    28    29   ar
    24    29    31    1
    25    31    32    1
    26    31    33    1
    27    31    34    1
    28    29    30   ar
    29     6     7   am
    30     7     8    2
    31     7     2    1
    32    15    10   ar
    33    30    25   ar
    34    17    20    1
    35    17    21    1
    36     3     9    1
@<TRIPOS>MOLECULE
*****
 34 36 0 0 0
SMALL
GASTEIGER

@<TRIPOS>ATOM
      1 C         139.2938  137.5508  164.9942 C.3     1  UNL1        0.0337
      2 C         138.8495  138.9283  164.6003 C.3     1  UNL1        0.1467
      3 N         138.5801  138.2902  163.2698 N.am    1  UNL1       -0.2806
      4 C         138.0450  139.3466  162.3490 C.2     1  UNL1        0.3106
      5 O         137.6420  139.1470  160.9181 O.2     1  UNL1       -0.2521
      6 N         137.9837  140.6374  163.1104 N.am    1  UNL1       -0.2050
      7 C         138.4809  140.3789  164.5019 C.2     1  UNL1        0.2527
      8 O         138.5903  141.3931  165.6017 O.2     1  UNL1       -0.2723
      9 H         138.7285  137.3442  163.0410 H       1  UNL1        0.1516
     10 C         139.2118  139.2783  166.0132 C.ar    1  UNL1        0.0021
     11 C         140.6020  139.7375  166.3392 C.ar    1  UNL1       -0.0009
     12 C         140.9643  140.0875  167.7521 C.ar    1  UNL1        0.0196
     13 C         139.9363  139.9783  168.8390 C.ar    1  UNL1        0.1217
     14 C         138.5460  139.5192  168.5130 C.ar    1  UNL1        0.0196
     15 C         138.1838  139.1692  167.1001 C.ar    1  UNL1       -0.0009
     16 S         140.2985  140.3284  170.2519 S.O2    1  UNL1        0.0572
     17 N         140.6608  140.6784  171.6647 N.3     1  UNL1       -0.2035
     18 O         141.5681  139.5402  170.1217 O.2     1  UNL1       -0.1532
     19 O         139.0290  141.1166  170.3821 O.2     1  UNL1       -0.1532
     20 H         141.5568  140.2525  171.9015 H       1  UNL1        0.1442
     21 H         139.9406  140.3291  172.2969 H       1  UNL1        0.1442
     22 C         137.5086  141.9554  162.5746 C.3     1  UNL1        0.1714
     23 C         138.4125  142.7832  161.7098 C.2     1  UNL1        0.1935
     24 O         138.2355  142.7796  160.2203 O.2     1  UNL1       -0.2895
     25 C         139.4935  143.6145  162.3346 C.ar    1  UNL1        0.0364
     26 C         139.5930  145.0771  162.0170 C.ar    1  UNL1        0.0029
     27 C         140.6740  145.9084  162.6418 C.ar    1  UNL1        0.0000
     28 C         141.6555  145.2772  163.5842 C.ar    1  UNL1        0.0039
     29 C         141.5560  143.8146  163.9017 C.ar    1  UNL1        0.0715
     30 C         140.4751  142.9832  163.2770 C.ar    1  UNL1        0.0067
     31 C         142.5376  143.1832  164.8442 C.3     1  UNL1        0.4186
     32 F         143.5192  142.5520  165.7865 F       1  UNL1       -0.1659
     33 F         143.6360  143.4013  163.8462 F       1  UNL1       -0.1659
     34 F         141.4392  142.9652  165.8421 F       1  UNL1       -0.1659
@<TRIPOS>BOND
     1     1     2    1
     2     2    10    1
     3    10    11   ar
     4    11    12   ar
     5    12    13   ar
     6    13    16    1
     7    16    17    1
     8    16    18    2
     9    16    19    2
    10    13    14   ar
    11    14    15   ar
    12     2     3    1
    13     3     4   am
    14     4     5    2
    15     4     6   am
    16     6    22    1
    17    22    23    1
    18    23    24    2
    19    23    25    1
    20    25    26   ar
    21    26    27   ar
    22    27    28   ar
    23    28    29   ar
    24    29    31    1
    25    31    32    1
    26    31    33    1
    27    31    34    1
    28    29    30   ar
    29     6     7   am
    30     7     8    2
    31     7     2    1
    32    15    10   ar
    33    30    25   ar
    34    17    20    1
    35    17    21    1
    36     3     9    1
@<TRIPOS>MOLECULE
*****
 34 36 0 0 0
SMALL
GASTEIGER

@<TRIPOS>ATOM
      1 C         138.7450  139.2125  167.2079 C.3     1  UNL1        0.0337
      2 C         139.5984  139.5739  166.0285 C.3     1  UNL1        0.1467
      3 N         138.6552  138.6851  165.2731 N.am    1  UNL1       -0.2806
      4 C         139.0855  138.6673  163.8363 C.2     1  UNL1        0.3106
      5 O         138.4230  137.9055  162.7270 O.2     1  UNL1       -0.2521
      6 N         140.2946  139.5449  163.7036 N.am    1  UNL1       -0.2050
      7 C         140.6116  140.1053  165.0585 C.2     1  UNL1        0.2527
      8 O         141.7432  141.0339  165.3858 O.2     1  UNL1       -0.2723
      9 H         137.8883  138.1989  165.6536 H       1  UNL1        0.1516
     10 C         140.3632  140.3871  167.0304 C.ar    1  UNL1        0.0021
     11 C         141.4668  139.7539  167.8247 C.ar    1  UNL1       -0.0009
     12 C         142.2316  140.5671  168.8266 C.ar    1  UNL1        0.0196
     13 C         141.8926  142.0135  169.0342 C.ar    1  UNL1        0.1217
     14 C         140.7889  142.6466  168.2400 C.ar    1  UNL1        0.0196
     15 C         140.0242  141.8334  167.2381 C.ar    1  UNL1       -0.0009
     16 S         142.6574  142.8267  170.0362 S.O2    1  UNL1        0.0572
     17 N         143.4221  143.6398  171.0382 N.3     1  UNL1       -0.2035
     18 O         143.8813  142.7388  169.1735 O.2     1  UNL1       -0.1532
     19 O         141.4336  142.9145  170.8990 O.2     1  UNL1       -0.1532
     20 H         144.3801  143.7678  170.7121 H       1  UNL1        0.1442
     21 H         143.4302  143.1542  171.9351 H       1  UNL1        0.1442
     22 C         141.0536  139.8149  162.4383 C.3     1  UNL1        0.1714
     23 C         140.8132  141.0842  161.6759 C.2     1  UNL1        0.1935
     24 O         140.6206  141.0411  160.1889 O.2     1  UNL1       -0.2895
     25 C         140.7655  142.3966  162.4006 C.ar    1  UNL1        0.0364
     26 C         141.9403  143.3276  162.3445 C.ar    1  UNL1        0.0029
     27 C         141.8925  144.6400  163.0691 C.ar    1  UNL1        0.0000
     28 C         140.6700  145.0216  163.8499 C.ar    1  UNL1        0.0039
     29 C         139.4951  144.0907  163.9060 C.ar    1  UNL1        0.0715
     30 C         139.5428  142.7783  163.1814 C.ar    1  UNL1        0.0067
     31 C         138.2724  144.4723  164.6868 C.3     1  UNL1        0.4186
     32 F         137.0498  144.8539  165.4675 F       1  UNL1       -0.1659
     33 F         137.4251  144.2474  163.4697 F       1  UNL1       -0.1659
     34 F         139.1199  144.6972  165.9039 F       1  UNL1       -0.1659
@<TRIPOS>BOND
     1     1     2    1
     2     2    10    1
     3    10    11   ar
     4    11    12   ar
     5    12    13   ar
     6    13    16    1
     7    16    17    1
     8    16    18    2
     9    16    19    2
    10    13    14   ar
    11    14    15   ar
    12     2     3    1
    13     3     4   am
    14     4     5    2
    15     4     6   am
    16     6    22    1
    17    22    23    1
    18    23    24    2
    19    23    25    1
    20    25    26   ar
    21    26    27   ar
    22    27    28   ar
    23    28    29   ar
    24    29    31    1
    25    31    32    1
    26    31    33    1
    27    31    34    1
    28    29    30   ar
    29     6     7   am
    30     7     8    2
    31     7     2    1
    32    15    10   ar
    33    30    25   ar
    34    17    20    1
    35    17    21    1
    36     3     9    1
@<TRIPOS>MOLECULE
*****
 34 36 0 0 0
SMALL
GASTEIGER

@<TRIPOS>ATOM
      1 C         140.6517  137.7965  164.8355 C.3     1  UNL1        0.0337
      2 C         141.3032  139.0916  164.4505 C.3     1  UNL1        0.1467
      3 N         141.2754  138.5127  163.0670 N.am    1  UNL1       -0.2806
      4 C         141.8870  139.5144  162.1330 C.2     1  UNL1        0.3106
      5 O         142.0622  139.3475  160.6527 O.2     1  UNL1       -0.2521
      6 N         142.2928  140.7125  162.9392 N.am    1  UNL1       -0.2050
      7 C         141.9319  140.4511  164.3715 C.2     1  UNL1        0.2527
      8 O         142.1598  141.3854  165.5228 O.2     1  UNL1       -0.2723
      9 H         140.9185  137.6301  162.8161 H       1  UNL1        0.1516
     10 C         141.1947  139.3997  165.9146 C.ar    1  UNL1        0.0021
     11 C         142.3818  139.2082  166.8113 C.ar    1  UNL1       -0.0009
     12 C         142.2732  139.5163  168.2752 C.ar    1  UNL1        0.0196
     13 C         140.9777  140.0160  168.8425 C.ar    1  UNL1        0.1217
     14 C         139.7906  140.2076  167.9458 C.ar    1  UNL1        0.0196
     15 C         139.8991  139.8994  166.4818 C.ar    1  UNL1       -0.0009
     16 S         140.8692  140.3242  170.3065 S.O2    1  UNL1        0.0572
     17 N         140.7608  140.6323  171.7705 N.3     1  UNL1       -0.2035
     18 O         139.4866  139.7430  170.3265 O.2     1  UNL1       -0.1532
     19 O         142.2518  140.9054  170.2866 O.2     1  UNL1       -0.1532
     20 H         139.8498  140.3295  172.1151 H       1  UNL1        0.1442
     21 H         140.8622  141.6369  171.9149 H       1  UNL1        0.1442
     22 C         142.9449  141.9539  162.4067 C.3     1  UNL1        0.1714
     23 C         142.1059  143.0445  161.8092 C.2     1  UNL1        0.1935
     24 O         142.7086  143.9986  160.8212 O.2     1  UNL1       -0.2895
     25 C         140.6641  143.1809  162.2000 C.ar    1  UNL1        0.0364
     26 C         139.5932  142.5838  161.3359 C.ar    1  UNL1        0.0029
     27 C         138.1514  142.7202  161.7267 C.ar    1  UNL1        0.0000
     28 C         137.7805  143.4536  162.9814 C.ar    1  UNL1        0.0039
     29 C         138.8515  144.0507  163.8455 C.ar    1  UNL1        0.0715
     30 C         140.2932  143.9143  163.4548 C.ar    1  UNL1        0.0067
     31 C         138.4806  144.7842  165.1003 C.3     1  UNL1        0.4186
     32 F         138.1097  145.5176  166.3551 F       1  UNL1       -0.1659
     33 F         137.0789  144.2613  164.9916 F       1  UNL1       -0.1659
     34 F         139.8823  145.3071  165.2089 F       1  UNL1       -0.1659
@<TRIPOS>BOND
     1     1     2    1
     2     2    10    1
     3    10    11   ar
     4    11    12   ar
     5    12    13   ar
     6    13    16    1
     7    16    17    1
     8    16    18    2
     9    16    19    2
    10    13    14   ar
    11    14    15   ar
    12     2     3    1
    13     3     4   am
    14     4     5    2
    15     4     6   am
    16     6    22    1
    17    22    23    1
    18    23    24    2
    19    23    25    1
    20    25    26   ar
    21    26    27   ar
    22    27    28   ar
    23    28    29   ar
    24    29    31    1
    25    31    32    1
    26    31    33    1
    27    31    34    1
    28    29    30   ar
    29     6     7   am
    30     7     8    2
    31     7     2    1
    32    15    10   ar
    33    30    25   ar
    34    17    20    1
    35    17    21    1
    36     3     9    1
@<TRIPOS>MOLECULE
*****
 34 36 0 0 0
SMALL
GASTEIGER

@<TRIPOS>ATOM
      1 C         143.4998  143.8010  165.3107 C.3     1  UNL1        0.0337
      2 C         143.4667  142.3120  165.1329 C.3     1  UNL1        0.1467
      3 N         144.1194  142.6126  163.8162 N.am    1  UNL1       -0.2806
      4 C         144.3546  141.3116  163.1077 C.2     1  UNL1        0.3106
      5 O         144.9862  141.1447  161.7575 O.2     1  UNL1       -0.2521
      6 N         143.8473  140.2069  163.9865 N.am    1  UNL1       -0.2050
      7 C         143.2986  140.8252  165.2381 C.2     1  UNL1        0.2527
      8 O         142.6887  140.0863  166.3924 O.2     1  UNL1       -0.2723
      9 H         144.3524  143.5069  163.4767 H       1  UNL1        0.1516
     10 C         142.8209  142.3227  166.4868 C.ar    1  UNL1        0.0021
     11 C         143.6705  142.3418  167.7228 C.ar    1  UNL1       -0.0009
     12 C         143.0247  142.3525  169.0766 C.ar    1  UNL1        0.0196
     13 C         141.5294  142.3440  169.1944 C.ar    1  UNL1        0.1217
     14 C         140.6798  142.3249  167.9584 C.ar    1  UNL1        0.0196
     15 C         141.3256  142.3142  166.6046 C.ar    1  UNL1       -0.0009
     16 S         140.8836  142.3547  170.5483 S.O2    1  UNL1        0.0572
     17 N         140.2378  142.3654  171.9021 N.3     1  UNL1       -0.2035
     18 O         142.1855  142.7713  171.1660 O.2     1  UNL1       -0.1532
     19 O         139.5818  141.9381  169.9306 O.2     1  UNL1       -0.1532
     20 H         140.9261  142.6349  172.6050 H       1  UNL1        0.1442
     21 H         139.8805  141.4342  172.1157 H       1  UNL1        0.1442
     22 C         143.8826  138.7413  163.6693 C.3     1  UNL1        0.1714
     23 C         143.0357  138.1936  162.5589 C.2     1  UNL1        0.1935
     24 O         143.6828  137.6585  161.3160 O.2     1  UNL1       -0.2895
     25 C         141.5416  138.1812  162.6916 C.ar    1  UNL1        0.0364
     26 C         140.6805  138.1001  161.4660 C.ar    1  UNL1        0.0029
     27 C         139.1865  138.0877  161.5987 C.ar    1  UNL1        0.0000
     28 C         138.5534  138.1563  162.9568 C.ar    1  UNL1        0.0039
     29 C         139.4146  138.2373  164.1823 C.ar    1  UNL1        0.0715
     30 C         140.9086  138.2498  164.0498 C.ar    1  UNL1        0.0067
     31 C         138.7816  138.3059  165.5406 C.3     1  UNL1        0.4186
     32 F         138.1486  138.3744  166.8987 F       1  UNL1       -0.1659
     33 F         138.5053  136.8326  165.4861 F       1  UNL1       -0.1659
     34 F         139.0579  139.7792  165.5949 F       1  UNL1       -0.1659
@<TRIPOS>BOND
     1     1     2    1
     2     2    10    1
     3    10    11   ar
     4    11    12   ar
     5    12    13   ar
     6    13    16    1
     7    16    17    1
     8    16    18    2
     9    16    19    2
    10    13    14   ar
    11    14    15   ar
    12     2     3    1
    13     3     4   am
    14     4     5    2
    15     4     6   am
    16     6    22    1
    17    22    23    1
    18    23    24    2
    19    23    25    1
    20    25    26   ar
    21    26    27   ar
    22    27    28   ar
    23    28    29   ar
    24    29    31    1
    25    31    32    1
    26    31    33    1
    27    31    34    1
    28    29    30   ar
    29     6     7   am
    30     7     8    2
    31     7     2    1
    32    15    10   ar
    33    30    25   ar
    34    17    20    1
    35    17    21    1
    36     3     9    1
