@<TRIPOS>MOLECULE
*****
 33 37 0 0 0
SMALL
GASTEIGER

@<TRIPOS>ATOM
      1 C         142.4043  143.3421  162.9346 C.3     1  UNL1        0.0545
      2 C         143.8657  143.6096  163.1414 C.3     1  UNL1        0.0162
      3 C         144.5223  142.3191  163.5331 C.3     1  UNL1        0.0095
      4 C         145.8313  141.6869  163.9030 C.3     1  UNL1        0.0005
      5 C         145.5847  140.2310  164.1669 C.3     1  UNL1        0.0005
      6 C         144.1234  139.9634  163.9601 C.3     1  UNL1        0.0087
      7 C         143.4667  141.2539  163.5684 C.3     1  UNL1        0.0704
      8 C         142.1578  141.8862  163.1985 C.3     1  UNL1        0.0243
      9 C         142.4112  140.1888  163.6037 C.2     1  UNL1        0.2250
     10 O         142.2470  139.2567  162.4400 O.2     1  UNL1       -0.2749
     11 N         141.5197  140.0557  164.8028 N.am    1  UNL1       -0.2750
     12 C         140.4642  138.9906  164.8380 C.3     1  UNL1        0.1000
     13 C         139.5728  138.8576  166.0371 C.3     1  UNL1        0.0670
     14 C         139.7370  139.7896  167.2008 C.ar    1  UNL1        0.0588
     15 N         138.8455  139.6566  168.3999 N.ar    1  UNL1       -0.2421
     16 C         139.0097  140.5886  169.5636 C.ar    1  UNL1        0.1736
     17 C         140.0653  141.6538  169.5283 C.ar    1  UNL1        0.3087
     18 C         140.9567  141.7868  168.3293 C.ar    1  UNL1        0.0755
     19 C         140.7925  140.8548  167.1655 C.ar    1  UNL1        0.0174
     20 C         141.6839  140.9878  165.9665 C.3     1  UNL1        0.1215
     21 N         140.2295  142.5859  170.6920 N.pl3   1  UNL1        0.0825
     22 O         139.9485  144.0499  170.5258 O.2     1  UNL1        0.0415
     23 O         140.6747  142.0539  172.0220 O.co2   1  UNL1       -0.5760
     24 N         141.3708  144.3529  162.5342 N.3     1  UNL1       -0.2975
     25 H         141.7964  145.2722  162.6534 H       1  UNL1        0.1232
     26 C         138.7840  144.1177  162.4816 C.3     1  UNL1        0.1591
     27 C         137.4613  144.1580  163.1878 C.3     1  UNL1        0.1729
     28 O         137.4027  144.4739  164.6529 O.3     1  UNL1       -0.3511
     29 C         138.6668  144.7495  165.4119 C.3     1  UNL1        0.1437
     30 C         139.9896  144.7092  164.7057 C.3     1  UNL1        0.0503
     31 C         140.0481  144.3933  163.2405 C.3     1  UNL1        0.0865
     32 C         138.4629  142.4352  160.5280 C.3     1  UNL1        0.1742
     33 O         138.8426  143.8017  161.0164 O.3     1  UNL1       -0.3496
@<TRIPOS>UNITY_ATOM_ATTR
21 1
charge 1
23 1
charge -1
@<TRIPOS>BOND
     1    32    33    1
     2    33    26    1
     3    26    27    1
     4    27    28    1
     5    28    29    1
     6    29    30    1
     7    30    31    1
     8    31    24    1
     9     1    24    1
    10     1     2    1
    11     3     2    1
    12     3     4    1
    13     4     5    1
    14     5     6    1
    15     6     7    1
    16     7     9    1
    17     9    10    2
    18     9    11   am
    19    11    12    1
    20    12    13    1
    21    13    14    1
    22    14    15   ar
    23    15    16   ar
    24    16    17   ar
    25    17    21    1
    26    21    22    2
    27    21    23    1
    28    17    18   ar
    29    18    19   ar
    30    19    20    1
    31     7     8    1
    32    31    26    1
    33     8     1    1
    34     7     3    1
    35    20    11    1
    36    19    14   ar
    37    24    25    1
@<TRIPOS>MOLECULE
*****
 33 37 0 0 0
SMALL
GASTEIGER

@<TRIPOS>ATOM
      1 C         139.3939  139.0134  166.2331 C.3     1  UNL1        0.0545
      2 C         138.3730  139.1044  167.3283 C.3     1  UNL1        0.0162
      3 C         138.9939  139.8360  168.4812 C.3     1  UNL1        0.0095
      4 C         138.7467  140.3444  169.8706 C.3     1  UNL1        0.0005
      5 C         139.9986  141.0198  170.3466 C.3     1  UNL1        0.0005
      6 C         141.0195  140.9289  169.2515 C.3     1  UNL1        0.0087
      7 C         140.3986  140.1972  168.0986 C.3     1  UNL1        0.0704
      8 C         140.6457  139.6888  166.7092 C.3     1  UNL1        0.0243
      9 C         141.8032  140.5585  167.7159 C.2     1  UNL1        0.2250
     10 O         142.9612  139.9243  168.4278 O.2     1  UNL1       -0.2749
     11 N         142.0499  141.5539  166.6212 N.am    1  UNL1       -0.2750
     12 C         143.4545  141.9151  166.2385 C.3     1  UNL1        0.1000
     13 C         143.7012  142.9105  165.1438 C.3     1  UNL1        0.0670
     14 C         142.5432  143.5447  164.4319 C.ar    1  UNL1        0.0588
     15 N         142.7899  144.5401  163.3372 N.ar    1  UNL1       -0.2421
     16 C         141.6319  145.1743  162.6252 C.ar    1  UNL1        0.1736
     17 C         140.2272  144.8130  163.0079 C.ar    1  UNL1        0.3087
     18 C         139.9806  143.8176  164.1026 C.ar    1  UNL1        0.0755
     19 C         141.1386  143.1835  164.8145 C.ar    1  UNL1        0.0174
     20 C         140.8919  142.1881  165.9092 C.3     1  UNL1        0.1215
     21 N         139.0693  145.4472  162.2960 N.pl3   1  UNL1        0.0825
     22 O         137.6819  144.9138  162.4972 O.2     1  UNL1        0.0415
     23 O         139.2987  146.6149  161.3827 O.co2   1  UNL1       -0.5760
     24 N         139.1974  138.3615  164.8965 N.3     1  UNL1       -0.2975
     25 H         140.0860  137.9270  164.6474 H       1  UNL1        0.1232
     26 C         139.1818  138.7774  162.3320 C.3     1  UNL1        0.1591
     27 C         138.7559  139.5996  161.1519 C.3     1  UNL1        0.1729
     28 O         137.9197  140.8280  161.3562 O.3     1  UNL1       -0.3511
     29 C         137.5094  141.2343  162.7407 C.3     1  UNL1        0.1437
     30 C         137.9353  140.4121  163.9208 C.3     1  UNL1        0.0503
     31 C         138.7715  139.1837  163.7164 C.3     1  UNL1        0.0865
     32 C         141.5110  137.6294  162.2486 C.3     1  UNL1        0.1742
     33 O         140.0180  137.5490  162.1277 O.3     1  UNL1       -0.3496
@<TRIPOS>UNITY_ATOM_ATTR
21 1
charge 1
23 1
charge -1
@<TRIPOS>BOND
     1    32    33    1
     2    33    26    1
     3    26    27    1
     4    27    28    1
     5    28    29    1
     6    29    30    1
     7    30    31    1
     8    31    24    1
     9     1    24    1
    10     1     2    1
    11     3     2    1
    12     3     4    1
    13     4     5    1
    14     5     6    1
    15     6     7    1
    16     7     9    1
    17     9    10    2
    18     9    11   am
    19    11    12    1
    20    12    13    1
    21    13    14    1
    22    14    15   ar
    23    15    16   ar
    24    16    17   ar
    25    17    21    1
    26    21    22    2
    27    21    23    1
    28    17    18   ar
    29    18    19   ar
    30    19    20    1
    31     7     8    1
    32    31    26    1
    33     8     1    1
    34     7     3    1
    35    20    11    1
    36    19    14   ar
    37    24    25    1
@<TRIPOS>MOLECULE
*****
 33 37 0 0 0
SMALL
GASTEIGER

@<TRIPOS>ATOM
      1 C         140.6562  137.6140  164.0187 C.3     1  UNL1        0.0545
      2 C         139.2159  137.4702  164.4120 C.3     1  UNL1        0.0162
      3 C         138.9876  138.2932  165.6450 C.3     1  UNL1        0.0095
      4 C         137.9563  138.7131  166.6501 C.3     1  UNL1        0.0005
      5 C         138.6183  139.6251  167.6402 C.3     1  UNL1        0.0005
      6 C         140.0586  139.7689  167.2469 C.3     1  UNL1        0.0087
      7 C         140.2869  138.9458  166.0139 C.3     1  UNL1        0.0704
      8 C         141.3181  138.5260  165.0087 C.3     1  UNL1        0.0243
      9 C         141.5862  139.5983  166.3827 C.2     1  UNL1        0.2250
     10 O         142.4933  138.9493  167.3856 O.2     1  UNL1       -0.2749
     11 N         141.9784  140.9000  165.7485 N.am    1  UNL1       -0.2750
     12 C         143.2776  141.5525  166.1173 C.3     1  UNL1        0.1000
     13 C         143.6698  142.8540  165.4832 C.3     1  UNL1        0.0670
     14 C         142.7626  143.5031  164.4803 C.ar    1  UNL1        0.0588
     15 N         143.1548  144.8047  163.8461 N.ar    1  UNL1       -0.2421
     16 C         142.2476  145.4537  162.8432 C.ar    1  UNL1        0.1736
     17 C         140.9483  144.8011  162.4744 C.ar    1  UNL1        0.3087
     18 C         140.5562  143.4996  163.1086 C.ar    1  UNL1        0.0755
     19 C         141.4633  142.8505  164.1115 C.ar    1  UNL1        0.0174
     20 C         141.0712  141.5490  164.7456 C.3     1  UNL1        0.1215
     21 N         140.0411  145.4501  161.4715 N.pl3   1  UNL1        0.0825
     22 O         139.6128  146.8753  161.6595 O.2     1  UNL1        0.0415
     23 O         139.5623  144.6739  160.2806 O.co2   1  UNL1       -0.5760
     24 N         141.3184  136.9606  162.8420 N.3     1  UNL1       -0.2975
     25 H         142.0586  136.3654  163.2138 H       1  UNL1        0.1232
     26 C         141.0827  138.3837  160.6812 C.3     1  UNL1        0.1591
     27 C         141.7032  139.2263  159.6065 C.3     1  UNL1        0.1729
     28 O         143.1801  139.4883  159.6179 O.3     1  UNL1       -0.3511
     29 C         144.0365  138.9077  160.7040 C.3     1  UNL1        0.1437
     30 C         143.4159  138.0651  161.7787 C.3     1  UNL1        0.0503
     31 C         141.9390  137.8031  161.7673 C.3     1  UNL1        0.0865
     32 C         138.6468  139.2181  161.0281 C.3     1  UNL1        0.1742
     33 O         139.6058  138.1217  160.6698 O.3     1  UNL1       -0.3496
@<TRIPOS>UNITY_ATOM_ATTR
21 1
charge 1
23 1
charge -1
@<TRIPOS>BOND
     1    32    33    1
     2    33    26    1
     3    26    27    1
     4    27    28    1
     5    28    29    1
     6    29    30    1
     7    30    31    1
     8    31    24    1
     9     1    24    1
    10     1     2    1
    11     3     2    1
    12     3     4    1
    13     4     5    1
    14     5     6    1
    15     6     7    1
    16     7     9    1
    17     9    10    2
    18     9    11   am
    19    11    12    1
    20    12    13    1
    21    13    14    1
    22    14    15   ar
    23    15    16   ar
    24    16    17   ar
    25    17    21    1
    26    21    22    2
    27    21    23    1
    28    17    18   ar
    29    18    19   ar
    30    19    20    1
    31     7     8    1
    32    31    26    1
    33     8     1    1
    34     7     3    1
    35    20    11    1
    36    19    14   ar
    37    24    25    1
@<TRIPOS>MOLECULE
*****
 33 37 0 0 0
SMALL
GASTEIGER

@<TRIPOS>ATOM
      1 C         141.1999  141.8380  162.0472 C.3     1  UNL1        0.0545
      2 C         141.0348  143.3172  161.8612 C.3     1  UNL1        0.0162
      3 C         139.7254  143.7180  162.4735 C.3     1  UNL1        0.0095
      4 C         138.8140  144.8799  162.7370 C.3     1  UNL1        0.0005
      5 C         137.6067  144.3664  163.4641 C.3     1  UNL1        0.0005
      6 C         137.7718  142.8872  163.6500 C.3     1  UNL1        0.0087
      7 C         139.0812  142.4864  163.0378 C.3     1  UNL1        0.0704
      8 C         139.9926  141.3245  162.7743 C.3     1  UNL1        0.0243
      9 C         138.4371  141.2549  163.6021 C.2     1  UNL1        0.2250
     10 O         137.4883  140.4526  162.7618 O.2     1  UNL1       -0.2749
     11 N         138.7419  140.8256  165.0067 N.am    1  UNL1       -0.2750
     12 C         138.0978  139.5940  165.5710 C.3     1  UNL1        0.1000
     13 C         138.4026  139.1648  166.9755 C.3     1  UNL1        0.0670
     14 C         139.3514  139.9671  167.8158 C.ar    1  UNL1        0.0588
     15 N         139.6561  139.5378  169.2204 N.ar    1  UNL1       -0.2421
     16 C         140.6049  140.3400  170.0607 C.ar    1  UNL1        0.1736
     17 C         141.2490  141.5716  169.4964 C.ar    1  UNL1        0.3087
     18 C         140.9443  142.0009  168.0918 C.ar    1  UNL1        0.0755
     19 C         139.9954  141.1986  167.2515 C.ar    1  UNL1        0.0174
     20 C         139.6907  141.6279  165.8470 C.3     1  UNL1        0.1215
     21 N         142.1978  142.3739  170.3367 N.pl3   1  UNL1        0.0825
     22 O         143.3973  143.0176  169.7066 O.2     1  UNL1        0.0415
     23 O         141.9471  142.5326  171.8071 O.co2   1  UNL1       -0.5760
     24 N         142.3675  141.0164  161.5868 N.3     1  UNL1       -0.2975
     25 H         142.0080  140.0848  161.3783 H       1  UNL1        0.1232
     26 C         143.6677  139.6012  163.3351 C.3     1  UNL1        0.1591
     27 C         144.8551  139.4164  164.2328 C.3     1  UNL1        0.1729
     28 O         145.9298  140.4618  164.2798 O.3     1  UNL1       -0.3511
     29 C         145.8170  141.6921  163.4291 C.3     1  UNL1        0.1437
     30 C         144.6296  141.8770  162.5314 C.3     1  UNL1        0.0503
     31 C         143.5549  140.8315  162.4844 C.3     1  UNL1        0.0865
     32 C         141.6170  138.4321  164.4204 C.3     1  UNL1        0.1742
     33 O         142.5931  138.5559  163.2881 O.3     1  UNL1       -0.3496
@<TRIPOS>UNITY_ATOM_ATTR
21 1
charge 1
23 1
charge -1
@<TRIPOS>BOND
     1    32    33    1
     2    33    26    1
     3    26    27    1
     4    27    28    1
     5    28    29    1
     6    29    30    1
     7    30    31    1
     8    31    24    1
     9     1    24    1
    10     1     2    1
    11     3     2    1
    12     3     4    1
    13     4     5    1
    14     5     6    1
    15     6     7    1
    16     7     9    1
    17     9    10    2
    18     9    11   am
    19    11    12    1
    20    12    13    1
    21    13    14    1
    22    14    15   ar
    23    15    16   ar
    24    16    17   ar
    25    17    21    1
    26    21    22    2
    27    21    23    1
    28    17    18   ar
    29    18    19   ar
    30    19    20    1
    31     7     8    1
    32    31    26    1
    33     8     1    1
    34     7     3    1
    35    20    11    1
    36    19    14   ar
    37    24    25    1
@<TRIPOS>MOLECULE
*****
 33 37 0 0 0
SMALL
GASTEIGER

@<TRIPOS>ATOM
      1 C         140.3259  141.7659  161.3821 C.3     1  UNL1        0.0545
      2 C         138.9044  141.3219  161.2022 C.3     1  UNL1        0.0162
      3 C         138.7861  139.9220  161.7276 C.3     1  UNL1        0.0095
      4 C         137.8344  138.7823  161.9411 C.3     1  UNL1        0.0005
      5 C         138.5946  137.6567  162.5777 C.3     1  UNL1        0.0005
      6 C         140.0160  138.1007  162.7577 C.3     1  UNL1        0.0087
      7 C         140.1344  139.5007  162.2323 C.3     1  UNL1        0.0704
      8 C         141.0860  140.6403  162.0187 C.3     1  UNL1        0.0243
      9 C         141.4826  139.0794  162.7369 C.2     1  UNL1        0.2250
     10 O         142.5277  138.5997  161.7737 O.2     1  UNL1       -0.2749
     11 N         141.7859  139.1380  164.2048 N.am    1  UNL1       -0.2750
     12 C         143.1342  138.7167  164.7094 C.3     1  UNL1        0.1000
     13 C         143.4374  138.7752  166.1773 C.3     1  UNL1        0.0670
     14 C         142.3924  139.2550  167.1405 C.ar    1  UNL1        0.0588
     15 N         142.6957  139.3135  168.6084 N.ar    1  UNL1       -0.2421
     16 C         141.6507  139.7933  169.5716 C.ar    1  UNL1        0.1736
     17 C         140.3023  140.2145  169.0669 C.ar    1  UNL1        0.3087
     18 C         139.9991  140.1560  167.5990 C.ar    1  UNL1        0.0755
     19 C         141.0441  139.6762  166.6358 C.ar    1  UNL1        0.0174
     20 C         140.7409  139.6177  165.1680 C.3     1  UNL1        0.1215
     21 N         139.2573  140.6943  170.0301 N.pl3   1  UNL1        0.0825
     22 O         138.1354  139.7843  170.4341 O.2     1  UNL1        0.0415
     23 O         139.3342  142.0841  170.5893 O.co2   1  UNL1       -0.5760
     24 N         140.8885  143.1011  160.9937 N.3     1  UNL1       -0.2975
     25 H         141.3693  142.9704  160.1036 H       1  UNL1        0.1232
     26 C         141.3413  144.7933  162.9123 C.3     1  UNL1        0.1591
     27 C         142.3024  145.4963  163.8245 C.3     1  UNL1        0.1729
     28 O         143.7718  145.2101  163.7302 O.3     1  UNL1       -0.3511
     29 C         144.2802  144.2208  162.7236 C.3     1  UNL1        0.1437
     30 C         143.3190  143.5178  161.8115 C.3     1  UNL1        0.0503
     31 C         141.8496  143.8041  161.9058 C.3     1  UNL1        0.0865
     32 C         139.0505  144.4377  164.0853 C.3     1  UNL1        0.1742
     33 O         139.8719  145.0795  163.0067 O.3     1  UNL1       -0.3496
@<TRIPOS>UNITY_ATOM_ATTR
21 1
charge 1
23 1
charge -1
@<TRIPOS>BOND
     1    32    33    1
     2    33    26    1
     3    26    27    1
     4    27    28    1
     5    28    29    1
     6    29    30    1
     7    30    31    1
     8    31    24    1
     9     1    24    1
    10     1     2    1
    11     3     2    1
    12     3     4    1
    13     4     5    1
    14     5     6    1
    15     6     7    1
    16     7     9    1
    17     9    10    2
    18     9    11   am
    19    11    12    1
    20    12    13    1
    21    13    14    1
    22    14    15   ar
    23    15    16   ar
    24    16    17   ar
    25    17    21    1
    26    21    22    2
    27    21    23    1
    28    17    18   ar
    29    18    19   ar
    30    19    20    1
    31     7     8    1
    32    31    26    1
    33     8     1    1
    34     7     3    1
    35    20    11    1
    36    19    14   ar
    37    24    25    1
@<TRIPOS>MOLECULE
*****
 33 37 0 0 0
SMALL
GASTEIGER

@<TRIPOS>ATOM
      1 C         139.4717  142.1540  163.3735 C.3     1  UNL1        0.0545
      2 C         139.3580  143.6497  163.3814 C.3     1  UNL1        0.0162
      3 C         140.7423  144.2193  163.4783 C.3     1  UNL1        0.0095
      4 C         141.5275  145.4956  163.5431 C.3     1  UNL1        0.0005
      5 C         142.9821  145.1408  163.6351 C.3     1  UNL1        0.0005
      6 C         143.0958  143.6452  163.6272 C.3     1  UNL1        0.0087
      7 C         141.7115  143.0756  163.5303 C.3     1  UNL1        0.0704
      8 C         140.9262  141.7992  163.4655 C.3     1  UNL1        0.0243
      9 C         142.6807  141.9319  163.5823 C.2     1  UNL1        0.2250
     10 O         143.5382  141.6208  162.3915 O.2     1  UNL1       -0.2749
     11 N         142.7923  141.0993  164.8250 N.am    1  UNL1       -0.2750
     12 C         143.7615  139.9557  164.8770 C.3     1  UNL1        0.1000
     13 C         143.8731  139.1231  166.1197 C.3     1  UNL1        0.0670
     14 C         143.0156  139.4343  167.3105 C.ar    1  UNL1        0.0588
     15 N         143.1273  138.6016  168.5532 N.ar    1  UNL1       -0.2421
     16 C         142.2697  138.9128  169.7439 C.ar    1  UNL1        0.1736
     17 C         141.3005  140.0565  169.6919 C.ar    1  UNL1        0.3087
     18 C         141.1889  140.8890  168.4492 C.ar    1  UNL1        0.0755
     19 C         142.0464  140.5779  167.2585 C.ar    1  UNL1        0.0174
     20 C         141.9348  141.4104  166.0158 C.3     1  UNL1        0.1215
     21 N         140.4430  140.3676  170.8826 N.pl3   1  UNL1        0.0825
     22 O         140.8418  141.4608  171.8291 O.2     1  UNL1        0.0415
     23 O         139.1865  139.5854  171.1269 O.co2   1  UNL1       -0.5760
     24 N         138.3311  141.1835  163.2885 N.3     1  UNL1       -0.2975
     25 H         137.5041  141.6699  163.6348 H       1  UNL1        0.1232
     26 C         138.7216  138.6150  163.2734 C.3     1  UNL1        0.1591
     27 C         138.7932  137.3076  164.0052 C.3     1  UNL1        0.1729
     28 O         138.5459  137.2613  165.4839 O.3     1  UNL1       -0.3511
     29 C         138.2269  138.5224  166.2309 C.3     1  UNL1        0.1437
     30 C         138.1553  139.8298  165.4991 C.3     1  UNL1        0.0503
     31 C         138.4027  139.8761  164.0203 C.3     1  UNL1        0.0865
     32 C         140.3590  138.4810  161.2607 C.3     1  UNL1        0.1742
     33 O         138.9689  138.6613  161.7947 O.3     1  UNL1       -0.3496
@<TRIPOS>UNITY_ATOM_ATTR
21 1
charge 1
23 1
charge -1
@<TRIPOS>BOND
     1    32    33    1
     2    33    26    1
     3    26    27    1
     4    27    28    1
     5    28    29    1
     6    29    30    1
     7    30    31    1
     8    31    24    1
     9     1    24    1
    10     1     2    1
    11     3     2    1
    12     3     4    1
    13     4     5    1
    14     5     6    1
    15     6     7    1
    16     7     9    1
    17     9    10    2
    18     9    11   am
    19    11    12    1
    20    12    13    1
    21    13    14    1
    22    14    15   ar
    23    15    16   ar
    24    16    17   ar
    25    17    21    1
    26    21    22    2
    27    21    23    1
    28    17    18   ar
    29    18    19   ar
    30    19    20    1
    31     7     8    1
    32    31    26    1
    33     8     1    1
    34     7     3    1
    35    20    11    1
    36    19    14   ar
    37    24    25    1
@<TRIPOS>MOLECULE
*****
 33 37 0 0 0
SMALL
GASTEIGER

@<TRIPOS>ATOM
      1 C         138.7530  140.9439  162.3727 C.3     1  UNL1        0.0545
      2 C         138.1945  139.5668  162.5765 C.3     1  UNL1        0.0162
      3 C         139.2928  138.6954  163.1099 C.3     1  UNL1        0.0095
      4 C         139.6264  137.3058  163.5656 C.3     1  UNL1        0.0005
      5 C         141.0699  137.2856  163.9731 C.3     1  UNL1        0.0005
      6 C         141.6284  138.6627  163.7694 C.3     1  UNL1        0.0087
      7 C         140.5301  139.5341  163.2359 C.3     1  UNL1        0.0704
      8 C         140.1965  140.9237  162.7803 C.3     1  UNL1        0.0243
      9 C         141.7673  140.3727  163.3618 C.2     1  UNL1        0.2250
     10 O         142.6055  140.6594  162.1513 O.2     1  UNL1       -0.2749
     11 N         142.1665  140.9246  164.6983 N.am    1  UNL1       -0.2750
     12 C         143.4037  141.7633  164.8243 C.3     1  UNL1        0.1000
     13 C         143.8028  142.3152  166.1607 C.3     1  UNL1        0.0670
     14 C         142.9647  142.0284  167.3712 C.ar    1  UNL1        0.0588
     15 N         143.3638  142.5804  168.7077 N.ar    1  UNL1       -0.2421
     16 C         142.5257  142.2936  169.9182 C.ar    1  UNL1        0.1736
     17 C         141.2884  141.4550  169.7922 C.ar    1  UNL1        0.3087
     18 C         140.8893  140.9031  168.4557 C.ar    1  UNL1        0.0755
     19 C         141.7274  141.1898  167.2452 C.ar    1  UNL1        0.0174
     20 C         141.3284  140.6379  165.9088 C.3     1  UNL1        0.1215
     21 N         140.4502  141.1682  171.0027 N.pl3   1  UNL1        0.0825
     22 O         140.4000  142.1552  172.1310 O.2     1  UNL1        0.0415
     23 O         139.6623  139.8944  171.0847 O.co2   1  UNL1       -0.5760
     24 N         138.0003  142.1327  161.8527 N.3     1  UNL1       -0.2975
     25 H         137.5361  141.8349  160.9946 H       1  UNL1        0.1232
     26 C         138.7187  144.5427  162.5049 C.3     1  UNL1        0.1591
     27 C         139.4507  145.8119  162.1833 C.3     1  UNL1        0.1729
     28 O         140.1961  145.9403  160.8880 O.3     1  UNL1       -0.3511
     29 C         140.2096  144.7993  159.9142 C.3     1  UNL1        0.1437
     30 C         139.4776  143.5301  160.2357 C.3     1  UNL1        0.0503
     31 C         138.7322  143.4019  161.5311 C.3     1  UNL1        0.0865
     32 C         138.6590  144.7356  165.0951 C.3     1  UNL1        0.1742
     33 O         137.9733  144.4144  163.8002 O.3     1  UNL1       -0.3496
@<TRIPOS>UNITY_ATOM_ATTR
21 1
charge 1
23 1
charge -1
@<TRIPOS>BOND
     1    32    33    1
     2    33    26    1
     3    26    27    1
     4    27    28    1
     5    28    29    1
     6    29    30    1
     7    30    31    1
     8    31    24    1
     9     1    24    1
    10     1     2    1
    11     3     2    1
    12     3     4    1
    13     4     5    1
    14     5     6    1
    15     6     7    1
    16     7     9    1
    17     9    10    2
    18     9    11   am
    19    11    12    1
    20    12    13    1
    21    13    14    1
    22    14    15   ar
    23    15    16   ar
    24    16    17   ar
    25    17    21    1
    26    21    22    2
    27    21    23    1
    28    17    18   ar
    29    18    19   ar
    30    19    20    1
    31     7     8    1
    32    31    26    1
    33     8     1    1
    34     7     3    1
    35    20    11    1
    36    19    14   ar
    37    24    25    1
@<TRIPOS>MOLECULE
*****
 33 37 0 0 0
SMALL
GASTEIGER

@<TRIPOS>ATOM
      1 C         142.1858  142.5462  162.2442 C.3     1  UNL1        0.0545
      2 C         141.9195  144.0198  162.1577 C.3     1  UNL1        0.0162
      3 C         140.4799  144.2522  162.5095 C.3     1  UNL1        0.0095
      4 C         139.4256  145.3065  162.6734 C.3     1  UNL1        0.0005
      5 C         138.1507  144.6281  163.0787 C.3     1  UNL1        0.0005
      6 C         138.4170  143.1544  163.1653 C.3     1  UNL1        0.0087
      7 C         139.8565  142.9221  162.8135 C.3     1  UNL1        0.0704
      8 C         140.9108  141.8678  162.6495 C.3     1  UNL1        0.0243
      9 C         139.2332  141.5921  163.1175 C.2     1  UNL1        0.2250
     10 O         138.6365  140.7731  162.0115 O.2     1  UNL1       -0.2749
     11 N         139.2065  141.0810  164.5275 N.am    1  UNL1       -0.2750
     12 C         138.5832  139.7510  164.8315 C.3     1  UNL1        0.1000
     13 C         138.5565  139.2399  166.2415 C.3     1  UNL1        0.0670
     14 C         139.1532  140.0589  167.3475 C.ar    1  UNL1        0.0588
     15 N         139.1265  139.5479  168.7575 N.ar    1  UNL1       -0.2421
     16 C         139.7231  140.3668  169.8635 C.ar    1  UNL1        0.1736
     17 C         140.3465  141.6969  169.5595 C.ar    1  UNL1        0.3087
     18 C         140.3732  142.2080  168.1495 C.ar    1  UNL1        0.0755
     19 C         139.7765  141.3890  167.0435 C.ar    1  UNL1        0.0174
     20 C         139.8032  141.9000  165.6335 C.3     1  UNL1        0.1215
     21 N         140.9432  142.5159  170.6655 N.pl3   1  UNL1        0.0825
     22 O         140.7255  142.1175  172.0951 O.2     1  UNL1        0.0415
     23 O         141.7575  143.7334  170.3418 O.co2   1  UNL1       -0.5760
     24 N         143.4969  141.8697  161.9731 N.3     1  UNL1       -0.2975
     25 H         144.0510  142.5160  161.4113 H       1  UNL1        0.1232
     26 C         143.9357  139.3092  162.0085 C.3     1  UNL1        0.1591
     27 C         143.9650  137.9864  161.3020 C.3     1  UNL1        0.1729
     28 O         143.5850  137.9012  159.8534 O.3     1  UNL1       -0.3511
     29 C         143.1756  139.1389  159.1114 C.3     1  UNL1        0.1437
     30 C         143.1462  140.4617  159.8179 C.3     1  UNL1        0.0503
     31 C         143.5263  140.5469  161.2666 C.3     1  UNL1        0.0865
     32 C         143.2683  139.2294  164.5182 C.3     1  UNL1        0.1742
     33 O         144.3157  139.3944  163.4571 O.3     1  UNL1       -0.3496
@<TRIPOS>UNITY_ATOM_ATTR
21 1
charge 1
23 1
charge -1
@<TRIPOS>BOND
     1    32    33    1
     2    33    26    1
     3    26    27    1
     4    27    28    1
     5    28    29    1
     6    29    30    1
     7    30    31    1
     8    31    24    1
     9     1    24    1
    10     1     2    1
    11     3     2    1
    12     3     4    1
    13     4     5    1
    14     5     6    1
    15     6     7    1
    16     7     9    1
    17     9    10    2
    18     9    11   am
    19    11    12    1
    20    12    13    1
    21    13    14    1
    22    14    15   ar
    23    15    16   ar
    24    16    17   ar
    25    17    21    1
    26    21    22    2
    27    21    23    1
    28    17    18   ar
    29    18    19   ar
    30    19    20    1
    31     7     8    1
    32    31    26    1
    33     8     1    1
    34     7     3    1
    35    20    11    1
    36    19    14   ar
    37    24    25    1
@<TRIPOS>MOLECULE
*****
 33 37 0 0 0
SMALL
GASTEIGER

@<TRIPOS>ATOM
      1 C         142.6267  139.0630  165.7957 C.3     1  UNL1        0.0545
      2 C         142.5143  139.7531  167.1227 C.3     1  UNL1        0.0162
      3 C         141.0611  139.8214  167.4881 C.3     1  UNL1        0.0095
      4 C         140.0935  140.2900  168.5340 C.3     1  UNL1        0.0005
      5 C         138.7097  139.9318  168.0792 C.3     1  UNL1        0.0005
      6 C         138.8221  139.2418  166.7521 C.3     1  UNL1        0.0087
      7 C         140.2753  139.1735  166.3868 C.3     1  UNL1        0.0704
      8 C         141.2429  138.7048  165.3408 C.3     1  UNL1        0.0243
      9 C         139.4896  138.5257  165.2855 C.2     1  UNL1        0.2250
     10 O         138.9654  137.1309  165.4584 O.2     1  UNL1       -0.2749
     11 N         139.2280  139.2726  164.0112 N.am    1  UNL1       -0.2750
     12 C         138.4423  138.6247  162.9099 C.3     1  UNL1        0.1000
     13 C         138.1807  139.3717  161.6357 C.3     1  UNL1        0.0670
     14 C         138.7049  140.7664  161.4627 C.ar    1  UNL1        0.0588
     15 N         138.4433  141.5133  160.1884 N.ar    1  UNL1       -0.2421
     16 C         138.9675  142.9081  160.0155 C.ar    1  UNL1        0.1736
     17 C         139.7533  143.5559  161.1169 C.ar    1  UNL1        0.3087
     18 C         140.0148  142.8090  162.3911 C.ar    1  UNL1        0.0755
     19 C         139.4906  141.4143  162.5640 C.ar    1  UNL1        0.0174
     20 C         139.7522  140.6673  163.8382 C.3     1  UNL1        0.1215
     21 N         140.2774  144.9507  160.9440 N.pl3   1  UNL1        0.0825
     22 O         141.6843  145.1701  160.4724 O.2     1  UNL1        0.0415
     23 O         139.3946  146.1261  161.2427 O.co2   1  UNL1       -0.5760
     24 N         143.8994  138.7807  165.0536 N.3     1  UNL1       -0.2975
     25 H         144.6537  138.8141  165.7394 H       1  UNL1        0.1232
     26 C         143.8945  139.3204  162.5123 C.3     1  UNL1        0.1591
     27 C         144.3080  140.2009  161.3705 C.3     1  UNL1        0.1729
     28 O         145.1401  141.4220  161.6282 O.3     1  UNL1       -0.3511
     29 C         145.5586  141.7628  163.0278 C.3     1  UNL1        0.1437
     30 C         145.1450  140.8824  164.1696 C.3     1  UNL1        0.0503
     31 C         144.3130  139.6611  163.9118 C.3     1  UNL1        0.0865
     32 C         141.8184  138.2012  161.4228 C.3     1  UNL1        0.1742
     33 O         143.0625  138.0993  162.2546 O.3     1  UNL1       -0.3496
@<TRIPOS>UNITY_ATOM_ATTR
21 1
charge 1
23 1
charge -1
@<TRIPOS>BOND
     1    32    33    1
     2    33    26    1
     3    26    27    1
     4    27    28    1
     5    28    29    1
     6    29    30    1
     7    30    31    1
     8    31    24    1
     9     1    24    1
    10     1     2    1
    11     3     2    1
    12     3     4    1
    13     4     5    1
    14     5     6    1
    15     6     7    1
    16     7     9    1
    17     9    10    2
    18     9    11   am
    19    11    12    1
    20    12    13    1
    21    13    14    1
    22    14    15   ar
    23    15    16   ar
    24    16    17   ar
    25    17    21    1
    26    21    22    2
    27    21    23    1
    28    17    18   ar
    29    18    19   ar
    30    19    20    1
    31     7     8    1
    32    31    26    1
    33     8     1    1
    34     7     3    1
    35    20    11    1
    36    19    14   ar
    37    24    25    1
