@<TRIPOS>MOLECULE
*****
 40 45 0 0 0
SMALL
GASTEIGER

@<TRIPOS>ATOM
      1 C         141.8113  139.0097  159.7245 C.ar    1  UNL1        0.1319
      2 C         141.3656  140.1045  158.8011 C.ar    1  UNL1        0.0343
      3 C         141.5488  139.9572  157.3197 C.ar    1  UNL1        0.0046
      4 C         142.1776  138.7150  156.7616 C.ar    1  UNL1        0.0239
      5 C         142.6233  137.6201  157.6850 C.ar    1  UNL1        0.1358
      6 N         142.4401  137.7674  159.1664 N.ar    1  UNL1       -0.2261
      7 C         139.2771  138.0665  161.0238 C.3     1  UNL1        0.0233
      8 C         140.3610  138.6855  161.8556 C.3     1  UNL1        0.0939
      9 C         140.1778  138.8329  163.3370 C.3     1  UNL1        0.1106
     10 N         141.2618  139.4519  164.1688 N.pl3   1  UNL1       -0.3029
     11 C         142.5288  139.9235  163.5192 C.3     1  UNL1        0.1123
     12 C         142.7120  139.7761  162.0378 C.3     1  UNL1        0.1135
     13 N         141.6281  139.1571  161.2060 N.pl3   1  UNL1       -0.2914
     14 C         141.0786  139.5993  165.6504 C.ar    1  UNL1        0.0674
     15 C         139.7109  139.8425  166.2164 C.ar    1  UNL1        0.0174
     16 C         139.5277  139.9899  167.6978 C.ar    1  UNL1        0.0183
     17 C         140.7121  139.8941  168.6133 C.ar    1  UNL1        0.0831
     18 N         142.0797  139.6508  168.0472 N.ar    1  UNL1       -0.2446
     19 C         142.2629  139.5034  166.5657 C.ar    1  UNL1        0.1130
     20 C         140.5288  140.0414  170.0947 C.3     1  UNL1        0.1232
     21 C         141.9167  139.5183  170.3184 C.3     1  UNL1        0.0355
     22 C         139.1410  140.5646  169.8710 C.3     1  UNL1        0.0355
     23 O         140.3456  140.1888  171.5761 O.3     1  UNL1       -0.3812
     24 H         141.1523  139.9016  172.0319 H       1  UNL1        0.2107
     25 C         143.2521  136.3778  157.1269 C.2     1  UNL1        0.2636
     26 O         144.2043  136.4732  155.9718 O.2     1  UNL1       -0.2685
     27 N         142.9288  135.0403  157.7239 N.am    1  UNL1       -0.3013
     28 H         142.3038  134.9778  158.4820 H       1  UNL1        0.1497
     29 C         143.5576  133.7981  157.1658 C.3     1  UNL1        0.0719
     30 C         143.0928  133.2484  155.8497 C.3     1  UNL1        0.0203
     31 C         144.1864  132.5559  156.6077 C.3     1  UNL1        0.0018
     32 C         144.8152  131.3137  156.0495 C.3     1  UNL1        0.0024
     33 C         145.2799  131.8633  157.3656 C.3     1  UNL1        0.0018
     34 C         144.6511  133.1055  157.9237 C.3     1  UNL1        0.0203
     35 C         144.1566  131.3741  155.1730 C.3     1  UNL1        0.0285
     36 C         143.2569  131.4566  153.9756 C.3     1  UNL1        0.0884
     37 O         142.7921  130.9070  152.6596 O.3     1  UNL1       -0.3867
     38 C         144.3504  130.7640  154.7335 C.3     1  UNL1        0.0269
     39 C         142.6281  132.6988  154.5337 C.3     1  UNL1        0.0285
     40 H         143.2982  130.1075  152.4462 H       1  UNL1        0.2102
@<TRIPOS>BOND
     1     8     7    1
     2     8     9    1
     3     9    10    1
     4    10    14    1
     5    14    15   ar
     6    15    16   ar
     7    16    17   ar
     8    17    20    1
     9    20    21    1
    10    20    22    1
    11    20    23    1
    12    17    18   ar
    13    18    19   ar
    14    10    11    1
    15    11    12    1
    16    12    13    1
    17    13     1    1
    18     1     2   ar
    19     2     3   ar
    20     3     4   ar
    21     4     5   ar
    22     5    25    1
    23    25    26    2
    24    25    27   am
    25    27    29    1
    26    29    30    1
    27    30    31    1
    28    31    32    1
    29    32    33    1
    30    33    34    1
    31    34    35    1
    32    35    36    1
    33    36    37    1
    34    36    38    1
    35    36    39    1
    36     5     6   ar
    37    13     8    1
    38     6     1   ar
    39    19    14   ar
    40    34    29    1
    41    39    30    1
    42    38    32    1
    43    23    24    1
    44    27    28    1
    45    37    40    1
@<TRIPOS>MOLECULE
*****
 40 45 0 0 0
SMALL
GASTEIGER

@<TRIPOS>ATOM
      1 C         143.2661  140.9422  160.5573 C.ar    1  UNL1        0.1319
      2 C         144.0367  142.0161  159.8482 C.ar    1  UNL1        0.0343
      3 C         144.3718  141.8631  158.3942 C.ar    1  UNL1        0.0046
      4 C         143.9363  140.6362  157.6493 C.ar    1  UNL1        0.0239
      5 C         143.1657  139.5623  158.3584 C.ar    1  UNL1        0.1358
      6 N         142.8306  139.7153  159.8124 N.ar    1  UNL1       -0.2261
      7 C         140.7182  142.2987  161.3748 C.3     1  UNL1        0.0233
      8 C         141.6570  141.7735  162.4201 C.3     1  UNL1        0.0939
      9 C         141.3220  141.9265  163.8742 C.3     1  UNL1        0.1106
     10 N         142.2608  141.4013  164.9195 N.pl3   1  UNL1       -0.3029
     11 C         143.5348  140.7231  164.5108 C.3     1  UNL1        0.1123
     12 C         143.8698  140.5701  163.0568 C.3     1  UNL1        0.1135
     13 N         142.9310  141.0953  162.0114 N.pl3   1  UNL1       -0.2914
     14 C         141.9257  141.5544  166.3736 C.ar    1  UNL1        0.0674
     15 C         142.9393  142.1249  167.3208 C.ar    1  UNL1        0.0174
     16 C         142.6042  142.2780  168.7749 C.ar    1  UNL1        0.0183
     17 C         141.2555  141.8605  169.2818 C.ar    1  UNL1        0.0831
     18 N         140.2420  141.2901  168.3345 N.ar    1  UNL1       -0.2446
     19 C         140.5771  141.1370  166.8804 C.ar    1  UNL1        0.1130
     20 C         140.9205  142.0136  170.7358 C.3     1  UNL1        0.1232
     21 C         139.9251  143.0824  170.3939 C.3     1  UNL1        0.0355
     22 C         141.9158  140.9449  171.0777 C.3     1  UNL1        0.0355
     23 O         140.5854  142.1667  172.1898 O.3     1  UNL1       -0.3812
     24 H         139.9063  142.8513  172.2948 H       1  UNL1        0.2107
     25 C         142.7302  138.3353  157.6134 C.2     1  UNL1        0.2636
     26 O         141.2920  137.9102  157.6442 O.2     1  UNL1       -0.2685
     27 N         143.7328  137.5335  156.8376 N.am    1  UNL1       -0.3013
     28 H         144.6767  137.8126  156.8174 H       1  UNL1        0.1497
     29 C         143.2973  136.3066  156.0926 C.3     1  UNL1        0.0719
     30 C         143.3406  134.9663  156.7647 C.3     1  UNL1        0.0203
     31 C         142.8618  135.0796  155.3477 C.3     1  UNL1        0.0018
     32 C         142.4264  133.8527  154.6028 C.3     1  UNL1        0.0024
     33 C         142.3831  135.1930  153.9307 C.3     1  UNL1        0.0018
     34 C         142.8186  136.4199  154.6757 C.3     1  UNL1        0.0203
     35 C         142.6470  133.2382  155.4858 C.3     1  UNL1        0.0285
     36 C         142.9483  132.3990  156.6919 C.3     1  UNL1        0.0884
     37 O         142.9916  131.0587  157.3640 O.3     1  UNL1       -0.3867
     38 C         142.4696  132.5124  155.2749 C.3     1  UNL1        0.0269
     39 C         143.3838  133.6259  157.4368 C.3     1  UNL1        0.0285
     40 H         142.6791  130.3778  156.7478 H       1  UNL1        0.2102
@<TRIPOS>BOND
     1     8     7    1
     2     8     9    1
     3     9    10    1
     4    10    14    1
     5    14    15   ar
     6    15    16   ar
     7    16    17   ar
     8    17    20    1
     9    20    21    1
    10    20    22    1
    11    20    23    1
    12    17    18   ar
    13    18    19   ar
    14    10    11    1
    15    11    12    1
    16    12    13    1
    17    13     1    1
    18     1     2   ar
    19     2     3   ar
    20     3     4   ar
    21     4     5   ar
    22     5    25    1
    23    25    26    2
    24    25    27   am
    25    27    29    1
    26    29    30    1
    27    30    31    1
    28    31    32    1
    29    32    33    1
    30    33    34    1
    31    34    35    1
    32    35    36    1
    33    36    37    1
    34    36    38    1
    35    36    39    1
    36     5     6   ar
    37    13     8    1
    38     6     1   ar
    39    19    14   ar
    40    34    29    1
    41    39    30    1
    42    38    32    1
    43    23    24    1
    44    27    28    1
    45    37    40    1
@<TRIPOS>MOLECULE
*****
 40 45 0 0 0
SMALL
GASTEIGER

@<TRIPOS>ATOM
      1 C         139.2825  140.4505  159.9361 C.ar    1  UNL1        0.1319
      2 C         138.6015  141.5218  159.1371 C.ar    1  UNL1        0.0343
      3 C         138.4560  141.3716  157.6517 C.ar    1  UNL1        0.0046
      4 C         138.9914  140.1499  156.9655 C.ar    1  UNL1        0.0239
      5 C         139.6723  139.0786  157.7646 C.ar    1  UNL1        0.1358
      6 N         139.8179  139.2289  159.2499 N.ar    1  UNL1       -0.2261
      7 C         137.7444  138.6554  161.7834 C.3     1  UNL1        0.0233
      8 C         138.6590  139.7033  162.3451 C.3     1  UNL1        0.0939
      9 C         138.8046  139.8536  163.8304 C.3     1  UNL1        0.1106
     10 N         139.7191  140.9015  164.3921 N.pl3   1  UNL1       -0.3029
     11 C         140.4881  141.7990  163.4685 C.3     1  UNL1        0.1123
     12 C         140.3425  141.6487  161.9833 C.3     1  UNL1        0.1135
     13 N         139.4280  140.6008  161.4215 N.pl3   1  UNL1       -0.2914
     14 C         139.8646  141.0518  165.8775 C.ar    1  UNL1        0.0674
     15 C         140.4072  142.3265  166.4527 C.ar    1  UNL1        0.0174
     16 C         140.5527  142.4768  167.9380 C.ar    1  UNL1        0.0183
     17 C         140.1557  141.3525  168.8482 C.ar    1  UNL1        0.0831
     18 N         139.6132  140.0778  168.2730 N.ar    1  UNL1       -0.2446
     19 C         139.4676  139.9275  166.7876 C.ar    1  UNL1        0.1130
     20 C         140.3012  141.5029  170.3335 C.3     1  UNL1        0.1232
     21 C         140.5574  140.0301  170.4575 C.3     1  UNL1        0.0355
     22 C         140.0451  142.9756  170.2095 C.3     1  UNL1        0.0355
     23 O         140.4468  141.6532  171.8188 O.3     1  UNL1       -0.3812
     24 H         140.6343  140.7877  172.2146 H       1  UNL1        0.2107
     25 C         140.2077  137.8569  157.0783 C.2     1  UNL1        0.2636
     26 O         139.2698  136.9168  156.3809 O.2     1  UNL1       -0.2685
     27 N         141.6810  137.5755  157.0894 N.am    1  UNL1       -0.3013
     28 H         142.2966  138.1926  157.5471 H       1  UNL1        0.1497
     29 C         142.2164  136.3538  156.4031 C.3     1  UNL1        0.0719
     30 C         142.8819  135.2745  157.2044 C.3     1  UNL1        0.0203
     31 C         142.7519  135.1322  155.7168 C.3     1  UNL1        0.0018
     32 C         143.2873  133.9106  155.0306 C.3     1  UNL1        0.0024
     33 C         142.6218  134.9900  154.2293 C.3     1  UNL1        0.0018
     34 C         142.0864  136.2116  154.9155 C.3     1  UNL1        0.0203
     35 C         143.6235  133.5145  155.9980 C.3     1  UNL1        0.0285
     36 C         144.0828  132.9735  157.3195 C.3     1  UNL1        0.0884
     37 O         144.7483  131.8941  158.1208 O.3     1  UNL1       -0.3867
     38 C         143.9528  132.8312  155.8319 C.3     1  UNL1        0.0269
     39 C         143.5474  134.1951  158.0057 C.3     1  UNL1        0.0285
     40 H         145.0345  131.1814  157.5283 H       1  UNL1        0.2102
@<TRIPOS>BOND
     1     8     7    1
     2     8     9    1
     3     9    10    1
     4    10    14    1
     5    14    15   ar
     6    15    16   ar
     7    16    17   ar
     8    17    20    1
     9    20    21    1
    10    20    22    1
    11    20    23    1
    12    17    18   ar
    13    18    19   ar
    14    10    11    1
    15    11    12    1
    16    12    13    1
    17    13     1    1
    18     1     2   ar
    19     2     3   ar
    20     3     4   ar
    21     4     5   ar
    22     5    25    1
    23    25    26    2
    24    25    27   am
    25    27    29    1
    26    29    30    1
    27    30    31    1
    28    31    32    1
    29    32    33    1
    30    33    34    1
    31    34    35    1
    32    35    36    1
    33    36    37    1
    34    36    38    1
    35    36    39    1
    36     5     6   ar
    37    13     8    1
    38     6     1   ar
    39    19    14   ar
    40    34    29    1
    41    39    30    1
    42    38    32    1
    43    23    24    1
    44    27    28    1
    45    37    40    1
@<TRIPOS>MOLECULE
*****
 40 45 0 0 0
SMALL
GASTEIGER

@<TRIPOS>ATOM
      1 C         143.1905  140.5093  159.5900 C.ar    1  UNL1        0.1319
      2 C         143.1059  141.8150  158.8566 C.ar    1  UNL1        0.0343
      3 C         143.1656  141.8386  157.3580 C.ar    1  UNL1        0.0046
      4 C         143.3099  140.5566  156.5929 C.ar    1  UNL1        0.0239
      5 C         143.3945  139.2509  157.3263 C.ar    1  UNL1        0.1358
      6 N         143.3348  139.2272  158.8249 N.ar    1  UNL1       -0.2261
      7 C         140.5518  140.1909  160.9814 C.3     1  UNL1        0.0233
      8 C         141.8115  140.3265  161.7843 C.3     1  UNL1        0.0939
      9 C         141.7518  140.3029  163.2829 C.3     1  UNL1        0.1106
     10 N         143.0115  140.4385  164.0859 N.pl3   1  UNL1       -0.3029
     11 C         144.3308  140.5977  163.3903 C.3     1  UNL1        0.1123
     12 C         144.3905  140.6213  161.8917 C.3     1  UNL1        0.1135
     13 N         143.1308  140.4857  161.0887 N.pl3   1  UNL1       -0.2914
     14 C         142.9518  140.4149  165.5846 C.ar    1  UNL1        0.0674
     15 C         142.8673  141.7009  166.3521 C.ar    1  UNL1        0.0174
     16 C         142.8076  141.6774  167.8507 C.ar    1  UNL1        0.0183
     17 C         142.8324  140.3678  168.5819 C.ar    1  UNL1        0.0831
     18 N         142.9169  139.0818  167.8143 N.ar    1  UNL1       -0.2446
     19 C         142.9766  139.1054  166.3156 C.ar    1  UNL1        0.1130
     20 C         142.7727  140.3442  170.0805 C.3     1  UNL1        0.1232
     21 C         142.9751  141.8301  170.1119 C.3     1  UNL1        0.0355
     22 C         142.5703  138.8583  170.0491 C.3     1  UNL1        0.0355
     23 O         142.7130  140.3207  171.5791 O.3     1  UNL1       -0.3812
     24 H         142.8235  141.2216  171.9212 H       1  UNL1        0.2107
     25 C         143.5388  137.9688  156.5611 C.2     1  UNL1        0.2636
     26 O         144.6426  137.8147  155.5572 O.2     1  UNL1       -0.2685
     27 N         142.5793  136.8408  156.7999 N.am    1  UNL1       -0.3013
     28 H         141.8549  136.9419  157.4588 H       1  UNL1        0.1497
     29 C         142.7236  135.5587  156.0347 C.3     1  UNL1        0.0719
     30 C         143.4002  134.3793  156.6682 C.3     1  UNL1        0.0203
     31 C         142.8680  134.2766  155.2696 C.3     1  UNL1        0.0018
     32 C         143.0123  132.9946  154.5044 C.3     1  UNL1        0.0024
     33 C         142.3357  134.1740  153.8710 C.3     1  UNL1        0.0018
     34 C         142.1914  135.4560  154.6361 C.3     1  UNL1        0.0203
     35 C         143.5232  132.5394  155.3633 C.3     1  UNL1        0.0285
     36 C         144.2210  131.9178  156.5365 C.3     1  UNL1        0.0884
     37 O         144.8976  130.7384  157.1700 O.3     1  UNL1       -0.3867
     38 C         143.6888  131.8152  155.1379 C.3     1  UNL1        0.0269
     39 C         144.0767  133.1999  157.3017 C.3     1  UNL1        0.0285
     40 H         144.9069  129.9968  156.5449 H       1  UNL1        0.2102
@<TRIPOS>BOND
     1     8     7    1
     2     8     9    1
     3     9    10    1
     4    10    14    1
     5    14    15   ar
     6    15    16   ar
     7    16    17   ar
     8    17    20    1
     9    20    21    1
    10    20    22    1
    11    20    23    1
    12    17    18   ar
    13    18    19   ar
    14    10    11    1
    15    11    12    1
    16    12    13    1
    17    13     1    1
    18     1     2   ar
    19     2     3   ar
    20     3     4   ar
    21     4     5   ar
    22     5    25    1
    23    25    26    2
    24    25    27   am
    25    27    29    1
    26    29    30    1
    27    30    31    1
    28    31    32    1
    29    32    33    1
    30    33    34    1
    31    34    35    1
    32    35    36    1
    33    36    37    1
    34    36    38    1
    35    36    39    1
    36     5     6   ar
    37    13     8    1
    38     6     1   ar
    39    19    14   ar
    40    34    29    1
    41    39    30    1
    42    38    32    1
    43    23    24    1
    44    27    28    1
    45    37    40    1
@<TRIPOS>MOLECULE
*****
 40 45 0 0 0
SMALL
GASTEIGER

@<TRIPOS>ATOM
      1 C         142.0974  140.6335  159.9536 C.ar    1  UNL1        0.1319
      2 C         141.9227  141.9138  159.1918 C.ar    1  UNL1        0.0343
      3 C         142.1194  141.9347  157.7050 C.ar    1  UNL1        0.0046
      4 C         142.4907  140.6752  156.9799 C.ar    1  UNL1        0.0239
      5 C         142.6653  139.3949  157.7417 C.ar    1  UNL1        0.1358
      6 N         142.4687  139.3741  159.2286 N.ar    1  UNL1       -0.2261
      7 C         144.4715  140.7662  161.7828 C.3     1  UNL1        0.0233
      8 C         143.0877  140.6791  162.3551 C.3     1  UNL1        0.0939
      9 C         142.8910  140.6583  163.8420 C.3     1  UNL1        0.1106
     10 N         141.5072  140.5712  164.4143 N.pl3   1  UNL1       -0.3029
     11 C         140.3202  140.5049  163.4998 C.3     1  UNL1        0.1123
     12 C         140.5169  140.5256  162.0129 C.3     1  UNL1        0.1135
     13 N         141.9007  140.6128  161.4406 N.pl3   1  UNL1       -0.2914
     14 C         141.3106  140.5504  165.9013 C.ar    1  UNL1        0.0674
     15 C         140.0466  139.9898  166.4829 C.ar    1  UNL1        0.0174
     16 C         139.8499  139.9690  167.9697 C.ar    1  UNL1        0.0183
     17 C         140.9172  140.5088  168.8751 C.ar    1  UNL1        0.0831
     18 N         142.1811  141.0695  168.2935 N.ar    1  UNL1       -0.2446
     19 C         142.3778  141.0902  166.8066 C.ar    1  UNL1        0.1130
     20 C         140.7205  140.4880  170.3620 C.3     1  UNL1        0.1232
     21 C         142.2030  140.3685  170.5564 C.3     1  UNL1        0.0355
     22 C         139.2380  140.6076  170.1675 C.3     1  UNL1        0.0355
     23 O         140.5238  140.4672  171.8488 O.3     1  UNL1       -0.3812
     24 H         141.3852  140.3899  172.2879 H       1  UNL1        0.2107
     25 C         143.0366  138.1354  157.0165 C.2     1  UNL1        0.2636
     26 O         144.2186  138.1223  156.0931 O.2     1  UNL1       -0.2685
     27 N         142.2260  136.8890  157.2148 N.am    1  UNL1       -0.3013
     28 H         141.4502  136.8976  157.8209 H       1  UNL1        0.1497
     29 C         142.5973  135.6295  156.4896 C.3     1  UNL1        0.0719
     30 C         143.3637  134.5533  157.1999 C.3     1  UNL1        0.0203
     31 C         142.9686  134.3700  155.7645 C.3     1  UNL1        0.0018
     32 C         143.3400  133.1105  155.0394 C.3     1  UNL1        0.0024
     33 C         142.5736  134.1867  154.3292 C.3     1  UNL1        0.0018
     34 C         142.2023  135.4462  155.0543 C.3     1  UNL1        0.0203
     35 C         143.8309  132.7331  155.9463 C.3     1  UNL1        0.0285
     36 C         144.5014  132.2176  157.1851 C.3     1  UNL1        0.0884
     37 O         145.2678  131.1414  157.8953 O.3     1  UNL1       -0.3867
     38 C         144.1064  132.0343  155.7497 C.3     1  UNL1        0.0269
     39 C         144.1301  133.4771  157.9102 C.3     1  UNL1        0.0285
     40 H         145.4246  130.4016  157.2879 H       1  UNL1        0.2102
@<TRIPOS>BOND
     1     8     7    1
     2     8     9    1
     3     9    10    1
     4    10    14    1
     5    14    15   ar
     6    15    16   ar
     7    16    17   ar
     8    17    20    1
     9    20    21    1
    10    20    22    1
    11    20    23    1
    12    17    18   ar
    13    18    19   ar
    14    10    11    1
    15    11    12    1
    16    12    13    1
    17    13     1    1
    18     1     2   ar
    19     2     3   ar
    20     3     4   ar
    21     4     5   ar
    22     5    25    1
    23    25    26    2
    24    25    27   am
    25    27    29    1
    26    29    30    1
    27    30    31    1
    28    31    32    1
    29    32    33    1
    30    33    34    1
    31    34    35    1
    32    35    36    1
    33    36    37    1
    34    36    38    1
    35    36    39    1
    36     5     6   ar
    37    13     8    1
    38     6     1   ar
    39    19    14   ar
    40    34    29    1
    41    39    30    1
    42    38    32    1
    43    23    24    1
    44    27    28    1
    45    37    40    1
@<TRIPOS>MOLECULE
*****
 40 45 0 0 0
SMALL
GASTEIGER

@<TRIPOS>ATOM
      1 C         140.5922  139.4056  161.4322 C.ar    1  UNL1        0.1319
      2 C         139.5323  138.4105  161.0630 C.ar    1  UNL1        0.0343
      3 C         138.4920  138.0149  162.0687 C.ar    1  UNL1        0.0046
      4 C         138.5117  138.6144  163.4435 C.ar    1  UNL1        0.0239
      5 C         139.5717  139.6096  163.8126 C.ar    1  UNL1        0.1358
      6 N         140.6119  140.0051  162.8070 N.ar    1  UNL1       -0.2261
      7 C         143.2745  138.0620  161.4408 C.3     1  UNL1        0.0233
      8 C         142.9736  139.1294  160.4308 C.3     1  UNL1        0.0939
      9 C         144.0138  139.5250  159.4250 C.3     1  UNL1        0.1106
     10 N         143.7128  140.5923  158.4150 N.pl3   1  UNL1       -0.3029
     11 C         142.3717  141.2641  158.4107 C.3     1  UNL1        0.1123
     12 C         141.3315  140.8685  159.4164 C.3     1  UNL1        0.1135
     13 N         141.6325  139.8012  160.4264 N.pl3   1  UNL1       -0.2914
     14 C         144.7531  140.9879  157.4093 C.ar    1  UNL1        0.0674
     15 C         144.8697  140.2370  156.1160 C.ar    1  UNL1        0.0174
     16 C         145.9099  140.6325  155.1103 C.ar    1  UNL1        0.0183
     17 C         146.8335  141.7790  155.3978 C.ar    1  UNL1        0.0831
     18 N         146.7169  142.5299  156.6911 N.ar    1  UNL1       -0.2446
     19 C         145.6766  142.1343  157.6968 C.ar    1  UNL1        0.1130
     20 C         147.8737  142.1745  154.3921 C.3     1  UNL1        0.1232
     21 C         146.7934  142.5918  153.4388 C.3     1  UNL1        0.0355
     22 C         148.9540  141.7572  155.3453 C.3     1  UNL1        0.0355
     23 O         148.9139  142.5700  153.3864 O.3     1  UNL1       -0.3812
     24 H         148.4795  142.9097  152.5884 H       1  UNL1        0.2107
     25 C         139.5914  140.2091  165.1875 C.2     1  UNL1        0.2636
     26 O         138.8237  141.4668  165.4683 O.2     1  UNL1       -0.2685
     27 N         140.3787  139.5510  166.2815 N.am    1  UNL1       -0.3013
     28 H         140.8826  138.7255  166.0972 H       1  UNL1        0.1497
     29 C         140.3984  140.1505  167.6564 C.3     1  UNL1        0.0719
     30 C         141.5915  140.9353  168.1153 C.3     1  UNL1        0.0203
     31 C         140.4181  140.7500  169.0312 C.3     1  UNL1        0.0018
     32 C         140.4378  141.3495  170.4060 C.3     1  UNL1        0.0024
     33 C         139.2448  140.5647  169.9471 C.3     1  UNL1        0.0018
     34 C         139.2251  139.9652  168.5723 C.3     1  UNL1        0.0203
     35 C         141.4380  141.7596  170.2129 C.3     1  UNL1        0.0285
     36 C         142.8042  142.3197  169.9491 C.3     1  UNL1        0.0884
     37 O         143.9973  143.1046  170.4080 O.3     1  UNL1       -0.3867
     38 C         141.6309  142.1344  170.8649 C.3     1  UNL1        0.0269
     39 C         142.7845  141.7202  168.5743 C.3     1  UNL1        0.0285
     40 H         143.8484  143.4196  171.3133 H       1  UNL1        0.2102
@<TRIPOS>BOND
     1     8     7    1
     2     8     9    1
     3     9    10    1
     4    10    14    1
     5    14    15   ar
     6    15    16   ar
     7    16    17   ar
     8    17    20    1
     9    20    21    1
    10    20    22    1
    11    20    23    1
    12    17    18   ar
    13    18    19   ar
    14    10    11    1
    15    11    12    1
    16    12    13    1
    17    13     1    1
    18     1     2   ar
    19     2     3   ar
    20     3     4   ar
    21     4     5   ar
    22     5    25    1
    23    25    26    2
    24    25    27   am
    25    27    29    1
    26    29    30    1
    27    30    31    1
    28    31    32    1
    29    32    33    1
    30    33    34    1
    31    34    35    1
    32    35    36    1
    33    36    37    1
    34    36    38    1
    35    36    39    1
    36     5     6   ar
    37    13     8    1
    38     6     1   ar
    39    19    14   ar
    40    34    29    1
    41    39    30    1
    42    38    32    1
    43    23    24    1
    44    27    28    1
    45    37    40    1
@<TRIPOS>MOLECULE
*****
 40 45 0 0 0
SMALL
GASTEIGER

@<TRIPOS>ATOM
      1 C         141.0074  142.1087  161.0080 C.ar    1  UNL1        0.1319
      2 C         139.5733  142.0895  160.5689 C.ar    1  UNL1        0.0343
      3 C         138.4756  142.1566  161.5890 C.ar    1  UNL1        0.0046
      4 C         138.8122  142.2430  163.0482 C.ar    1  UNL1        0.0239
      5 C         140.2463  142.2622  163.4873 C.ar    1  UNL1        0.1358
      6 N         141.3440  142.1951  162.4672 N.ar    1  UNL1       -0.2261
      7 C         142.2760  139.4733  160.3407 C.3     1  UNL1        0.0233
      8 C         142.7394  140.7239  159.6542 C.3     1  UNL1        0.0939
      9 C         143.8370  140.6568  158.6341 C.3     1  UNL1        0.1106
     10 N         144.3003  141.9074  157.9475 N.pl3   1  UNL1       -0.3029
     11 C         143.6660  143.2251  158.2811 C.3     1  UNL1        0.1123
     12 C         142.5684  143.2922  159.3013 C.3     1  UNL1        0.1135
     13 N         142.1051  142.0416  159.9878 N.pl3   1  UNL1       -0.2914
     14 C         145.3980  141.8403  156.9273 C.ar    1  UNL1        0.0674
     15 C         146.6971  142.5477  157.1759 C.ar    1  UNL1        0.0174
     16 C         147.7948  142.4806  156.1558 C.ar    1  UNL1        0.0183
     17 C         147.5933  141.7060  154.8871 C.ar    1  UNL1        0.0831
     18 N         146.2941  140.9986  154.6385 N.ar    1  UNL1       -0.2446
     19 C         145.1964  141.0658  155.6587 C.ar    1  UNL1        0.1130
     20 C         148.6909  141.6389  153.8670 C.3     1  UNL1        0.1232
     21 C         147.6686  141.5656  152.7718 C.3     1  UNL1        0.0355
     22 C         149.7132  141.7122  154.9621 C.3     1  UNL1        0.0355
     23 O         149.7885  141.5718  152.8469 O.3     1  UNL1       -0.3812
     24 H         149.4018  141.5127  151.9592 H       1  UNL1        0.2107
     25 C         140.5828  142.3486  164.9465 C.2     1  UNL1        0.2636
     26 O         139.9949  143.4421  165.7883 O.2     1  UNL1       -0.2685
     27 N         141.5072  141.3415  165.5639 N.am    1  UNL1       -0.3013
     28 H         141.8931  140.6238  165.0114 H       1  UNL1        0.1497
     29 C         141.8437  141.4279  167.0232 C.3     1  UNL1        0.0719
     30 C         141.0082  140.6946  168.0302 C.3     1  UNL1        0.0203
     31 C         142.1802  141.5142  168.4824 C.3     1  UNL1        0.0018
     32 C         142.5166  141.6006  169.9416 C.3     1  UNL1        0.0024
     33 C         143.3522  142.3339  168.9346 C.3     1  UNL1        0.0018
     34 C         143.0158  142.2475  167.4754 C.3     1  UNL1        0.0203
     35 C         141.6681  140.9442  170.1761 C.3     1  UNL1        0.0285
     36 C         140.5090  140.0476  170.4964 C.3     1  UNL1        0.0884
     37 O         139.6735  139.3143  171.5035 O.3     1  UNL1       -0.3867
     38 C         141.6811  140.8673  170.9486 C.3     1  UNL1        0.0269
     39 C         140.1726  139.9613  169.0372 C.3     1  UNL1        0.0285
     40 H         140.0243  139.4752  172.3933 H       1  UNL1        0.2102
@<TRIPOS>BOND
     1     8     7    1
     2     8     9    1
     3     9    10    1
     4    10    14    1
     5    14    15   ar
     6    15    16   ar
     7    16    17   ar
     8    17    20    1
     9    20    21    1
    10    20    22    1
    11    20    23    1
    12    17    18   ar
    13    18    19   ar
    14    10    11    1
    15    11    12    1
    16    12    13    1
    17    13     1    1
    18     1     2   ar
    19     2     3   ar
    20     3     4   ar
    21     4     5   ar
    22     5    25    1
    23    25    26    2
    24    25    27   am
    25    27    29    1
    26    29    30    1
    27    30    31    1
    28    31    32    1
    29    32    33    1
    30    33    34    1
    31    34    35    1
    32    35    36    1
    33    36    37    1
    34    36    38    1
    35    36    39    1
    36     5     6   ar
    37    13     8    1
    38     6     1   ar
    39    19    14   ar
    40    34    29    1
    41    39    30    1
    42    38    32    1
    43    23    24    1
    44    27    28    1
    45    37    40    1
@<TRIPOS>MOLECULE
*****
 40 45 0 0 0
SMALL
GASTEIGER

@<TRIPOS>ATOM
      1 C         140.4141  140.3757  161.3175 C.ar    1  UNL1        0.1319
      2 C         139.1285  139.7427  160.8742 C.ar    1  UNL1        0.0343
      3 C         138.0190  139.5280  161.8605 C.ar    1  UNL1        0.0046
      4 C         138.1951  139.9462  163.2902 C.ar    1  UNL1        0.0239
      5 C         139.4807  140.5792  163.7335 C.ar    1  UNL1        0.1358
      6 N         140.5902  140.7939  162.7472 N.ar    1  UNL1       -0.2261
      7 C         140.5752  142.9447  159.7767 C.3     1  UNL1        0.0233
      8 C         141.6042  141.8749  159.5608 C.3     1  UNL1        0.0939
      9 C         142.7137  142.0895  158.5744 C.3     1  UNL1        0.1106
     10 N         143.7426  141.0197  158.3585 N.pl3   1  UNL1       -0.3029
     11 C         143.6621  139.7352  159.1288 C.3     1  UNL1        0.1123
     12 C         142.5526  139.5205  160.1152 C.3     1  UNL1        0.1135
     13 N         141.5237  140.5904  160.3311 N.pl3   1  UNL1       -0.2914
     14 C         144.8522  141.2344  157.3721 C.ar    1  UNL1        0.0674
     15 C         145.8266  142.3571  157.5720 C.ar    1  UNL1        0.0174
     16 C         146.9361  142.5718  156.5857 C.ar    1  UNL1        0.0183
     17 C         147.0712  141.6639  155.3993 C.ar    1  UNL1        0.0831
     18 N         146.0967  140.5412  155.1994 N.ar    1  UNL1       -0.2446
     19 C         144.9872  140.3264  156.1858 C.ar    1  UNL1        0.1130
     20 C         148.1807  141.8786  154.4130 C.3     1  UNL1        0.1232
     21 C         147.1725  142.0411  153.3143 C.3     1  UNL1        0.0355
     22 C         149.1888  141.7161  155.5117 C.3     1  UNL1        0.0355
     23 O         149.2902  142.0933  153.4267 O.3     1  UNL1       -0.3812
     24 H         148.9146  142.2387  152.5442 H       1  UNL1        0.2107
     25 C         139.6568  140.9974  165.1633 C.2     1  UNL1        0.2636
     26 O         139.2118  142.3596  165.6065 O.2     1  UNL1       -0.2685
     27 N         140.2779  140.0535  166.1498 N.am    1  UNL1       -0.3013
     28 H         140.5700  139.1595  165.8589 H       1  UNL1        0.1497
     29 C         140.4540  140.4718  167.5795 C.3     1  UNL1        0.0719
     30 C         141.7103  141.1710  168.0071 C.3     1  UNL1        0.0203
     31 C         140.6301  140.8900  169.0092 C.3     1  UNL1        0.0018
     32 C         140.8062  141.3082  170.4389 C.3     1  UNL1        0.0024
     33 C         139.5500  140.6090  170.0113 C.3     1  UNL1        0.0018
     34 C         139.3739  140.1907  168.5816 C.3     1  UNL1        0.0203
     35 C         141.7937  141.7226  170.1961 C.3     1  UNL1        0.0285
     36 C         143.1426  142.2886  169.8644 C.3     1  UNL1        0.0884
     37 O         144.3989  142.9878  170.2919 O.3     1  UNL1       -0.3867
     38 C         142.0625  142.0075  170.8665 C.3     1  UNL1        0.0269
     39 C         142.9665  141.8703  168.4347 C.3     1  UNL1        0.0285
     40 H         144.3515  143.1869  171.2401 H       1  UNL1        0.2102
@<TRIPOS>BOND
     1     8     7    1
     2     8     9    1
     3     9    10    1
     4    10    14    1
     5    14    15   ar
     6    15    16   ar
     7    16    17   ar
     8    17    20    1
     9    20    21    1
    10    20    22    1
    11    20    23    1
    12    17    18   ar
    13    18    19   ar
    14    10    11    1
    15    11    12    1
    16    12    13    1
    17    13     1    1
    18     1     2   ar
    19     2     3   ar
    20     3     4   ar
    21     4     5   ar
    22     5    25    1
    23    25    26    2
    24    25    27   am
    25    27    29    1
    26    29    30    1
    27    30    31    1
    28    31    32    1
    29    32    33    1
    30    33    34    1
    31    34    35    1
    32    35    36    1
    33    36    37    1
    34    36    38    1
    35    36    39    1
    36     5     6   ar
    37    13     8    1
    38     6     1   ar
    39    19    14   ar
    40    34    29    1
    41    39    30    1
    42    38    32    1
    43    23    24    1
    44    27    28    1
    45    37    40    1
@<TRIPOS>MOLECULE
*****
 40 45 0 0 0
SMALL
GASTEIGER

@<TRIPOS>ATOM
      1 C         143.2545  140.9285  161.1856 C.ar    1  UNL1        0.1319
      2 C         144.2378  142.0432  160.9840 C.ar    1  UNL1        0.0343
      3 C         144.4725  143.0431  162.0771 C.ar    1  UNL1        0.0046
      4 C         143.7239  142.9284  163.3719 C.ar    1  UNL1        0.0239
      5 C         142.7407  141.8137  163.5735 C.ar    1  UNL1        0.1358
      6 N         142.5060  140.8138  162.4804 N.ar    1  UNL1       -0.2261
      7 C         143.7215  138.0095  161.6971 C.3     1  UNL1        0.0233
      8 C         143.2533  138.4691  160.3481 C.3     1  UNL1        0.0939
      9 C         143.0186  137.4692  159.2550 C.3     1  UNL1        0.1106
     10 N         142.5504  137.9287  157.9060 N.pl3   1  UNL1       -0.3029
     11 C         142.3169  139.3882  157.6503 C.3     1  UNL1        0.1123
     12 C         142.5516  140.3881  158.7435 C.3     1  UNL1        0.1135
     13 N         143.0198  139.9285  160.0924 N.pl3   1  UNL1       -0.2914
     14 C         142.3157  136.9288  156.8128 C.ar    1  UNL1        0.0674
     15 C         140.9860  136.8722  156.1210 C.ar    1  UNL1        0.0174
     16 C         140.7513  135.8723  155.0278 C.ar    1  UNL1        0.0183
     17 C         141.8463  134.9289  154.6265 C.ar    1  UNL1        0.0831
     18 N         143.1760  134.9855  155.3183 N.ar    1  UNL1       -0.2446
     19 C         143.4107  135.9854  156.4115 C.ar    1  UNL1        0.1130
     20 C         141.6116  133.9290  153.5333 C.3     1  UNL1        0.1232
     21 C         141.5613  135.0405  152.5274 C.3     1  UNL1        0.0355
     22 C         141.6618  132.8174  154.5392 C.3     1  UNL1        0.0355
     23 O         141.3768  132.9290  152.4402 O.3     1  UNL1       -0.3812
     24 H         141.2956  133.3912  151.5912 H       1  UNL1        0.2107
     25 C         141.9921  141.6990  164.8684 C.2     1  UNL1        0.2636
     26 O         141.4272  142.9267  165.5193 O.2     1  UNL1       -0.2685
     27 N         141.8085  140.3567  165.5121 N.am    1  UNL1       -0.3013
     28 H         142.1792  139.5510  165.0849 H       1  UNL1        0.1497
     29 C         141.0599  140.2420  166.8070 C.3     1  UNL1        0.0719
     30 C         141.7813  140.4258  168.1092 C.3     1  UNL1        0.0203
     31 C         140.3114  140.1273  168.1018 C.3     1  UNL1        0.0018
     32 C         139.5629  140.0127  169.3966 C.3     1  UNL1        0.0024
     33 C         138.8414  139.8289  168.0944 C.3     1  UNL1        0.0018
     34 C         139.5899  139.9436  166.7996 C.3     1  UNL1        0.0203
     35 C         140.4891  140.2165  169.9501 C.3     1  UNL1        0.0285
     36 C         141.7543  140.4949  170.7062 C.3     1  UNL1        0.0884
     37 O         142.4758  140.6786  172.0084 O.3     1  UNL1       -0.3867
     38 C         140.2844  140.1964  170.6988 C.3     1  UNL1        0.0269
     39 C         142.5028  140.6096  169.4114 C.3     1  UNL1        0.0285
     40 H         141.8504  140.5728  172.7422 H       1  UNL1        0.2102
@<TRIPOS>BOND
     1     8     7    1
     2     8     9    1
     3     9    10    1
     4    10    14    1
     5    14    15   ar
     6    15    16   ar
     7    16    17   ar
     8    17    20    1
     9    20    21    1
    10    20    22    1
    11    20    23    1
    12    17    18   ar
    13    18    19   ar
    14    10    11    1
    15    11    12    1
    16    12    13    1
    17    13     1    1
    18     1     2   ar
    19     2     3   ar
    20     3     4   ar
    21     4     5   ar
    22     5    25    1
    23    25    26    2
    24    25    27   am
    25    27    29    1
    26    29    30    1
    27    30    31    1
    28    31    32    1
    29    32    33    1
    30    33    34    1
    31    34    35    1
    32    35    36    1
    33    36    37    1
    34    36    38    1
    35    36    39    1
    36     5     6   ar
    37    13     8    1
    38     6     1   ar
    39    19    14   ar
    40    34    29    1
    41    39    30    1
    42    38    32    1
    43    23    24    1
    44    27    28    1
    45    37    40    1
