@<TRIPOS>MOLECULE
*****
 28 30 0 0 0
SMALL
GASTEIGER

@<TRIPOS>ATOM
      1 C         139.6794  141.2473  165.9562 C.ar    1  UNL1        0.1409
      2 N         139.9118  141.0171  167.4201 N.ar    1  UNL1       -0.1986
      3 C         139.1946  139.9057  168.1276 C.ar    1  UNL1        0.2181
      4 N         138.2451  139.0246  167.3713 N.ar    1  UNL1       -0.2120
      5 C         138.0127  139.2548  165.9074 C.ar    1  UNL1        0.1091
      6 C         138.7298  140.3661  165.1998 C.ar    1  UNL1        0.1040
      7 C         138.4974  140.5964  163.7360 C.2     1  UNL1        0.2470
      8 N         137.1144  140.8858  163.2325 N.am    1  UNL1       -0.3252
      9 O         139.6481  140.5372  162.7755 O.2     1  UNL1       -0.2702
     10 H         136.3592  140.9246  163.8629 H       1  UNL1        0.1453
     11 H         136.9619  141.0369  162.2717 H       1  UNL1        0.1453
     12 N         140.3965  142.3586  165.2486 N.pl3   1  UNL1       -0.2977
     13 H         139.9038  143.1649  164.9721 H       1  UNL1        0.1536
     14 C         144.6202  139.4191  164.5279 C.3     1  UNL1        0.0311
     15 C         143.9761  140.7718  164.6020 C.ar    1  UNL1       -0.0206
     16 C         144.7998  142.0073  164.3898 C.ar    1  UNL1       -0.0042
     17 C         144.1557  143.3599  164.4639 C.ar    1  UNL1        0.0009
     18 C         142.6879  143.4770  164.7501 C.ar    1  UNL1        0.0146
     19 C         141.8643  142.2415  164.9623 C.ar    1  UNL1        0.0491
     20 C         142.5084  140.8889  164.8883 C.ar    1  UNL1        0.0104
     21 N         139.4270  139.6755  169.5915 N.pl3   1  UNL1       -0.3032
     22 H         138.7145  139.2851  170.1476 H       1  UNL1        0.1496
     23 C         140.7449  140.0401  170.2081 C.3     1  UNL1        0.0888
     24 C         142.0666  139.3971  169.9083 C.3     1  UNL1        0.0381
     25 C         143.1111  140.0713  170.7476 C.3     1  UNL1        0.0704
     26 N         142.4350  141.1309  171.5662 N.3     1  UNL1       -0.2960
     27 C         140.9726  141.1116  171.2328 C.3     1  UNL1        0.0884
     28 H         142.8289  142.0449  171.3428 H       1  UNL1        0.1233
@<TRIPOS>BOND
     1    14    15    1
     2    15    16   ar
     3    16    17   ar
     4    17    18   ar
     5    18    19   ar
     6    19    12    1
     7    12     1    1
     8     1     2   ar
     9     2     3   ar
    10     3    21    1
    11    23    21    1
    12    23    24    1
    13    24    25    1
    14    25    26    1
    15    26    27    1
    16     3     4   ar
    17     4     5   ar
    18     5     6   ar
    19     6     7    1
    20     7     8   am
    21     7     9    2
    22    19    20   ar
    23    20    15   ar
    24     6     1   ar
    25    27    23    1
    26    12    13    1
    27    21    22    1
    28    26    28    1
    29     8    10    1
    30     8    11    1
@<TRIPOS>MOLECULE
*****
 28 30 0 0 0
SMALL
GASTEIGER

@<TRIPOS>ATOM
      1 C         139.8389  140.2245  165.7893 C.ar    1  UNL1        0.1409
      2 N         139.9801  140.4840  167.2599 N.ar    1  UNL1       -0.1986
      3 C         139.0743  139.7907  168.2341 C.ar    1  UNL1        0.2181
      4 N         138.0275  138.8381  167.7377 N.ar    1  UNL1       -0.2120
      5 C         137.8863  138.5786  166.2671 C.ar    1  UNL1        0.1091
      6 C         138.7920  139.2718  165.2929 C.ar    1  UNL1        0.1040
      7 C         138.6508  139.0123  163.8223 C.2     1  UNL1        0.2470
      8 N         138.8771  137.6326  163.2790 N.am    1  UNL1       -0.3252
      9 O         138.2834  140.1326  162.8949 O.2     1  UNL1       -0.2702
     10 H         139.1182  136.8973  163.8877 H       1  UNL1        0.1453
     11 H         138.7844  137.4623  162.3138 H       1  UNL1        0.1453
     12 N         140.7446  140.9177  164.8150 N.pl3   1  UNL1       -0.2977
     13 H         140.3992  141.6533  164.2594 H       1  UNL1        0.1536
     14 C         145.5940  141.8549  163.2008 C.3     1  UNL1        0.0311
     15 C         144.6014  140.9587  163.8803 C.ar    1  UNL1       -0.0206
     16 C         145.0409  139.6349  164.4321 C.ar    1  UNL1       -0.0042
     17 C         144.0483  138.7388  165.1115 C.ar    1  UNL1        0.0009
     18 C         142.6163  139.1663  165.2392 C.ar    1  UNL1        0.0146
     19 C         142.1768  140.4900  164.6874 C.ar    1  UNL1        0.0491
     20 C         143.1694  141.3862  164.0079 C.ar    1  UNL1        0.0104
     21 N         139.2155  140.0502  169.7047 N.pl3   1  UNL1       -0.3032
     22 H         138.4164  140.0747  170.2792 H       1  UNL1        0.1496
     23 C         140.5743  140.2725  170.3001 C.3     1  UNL1        0.0888
     24 C         141.8026  139.4575  170.0224 C.3     1  UNL1        0.0381
     25 C         142.9308  140.0300  170.8282 C.3     1  UNL1        0.0704
     26 N         142.3997  141.1989  171.6040 N.3     1  UNL1       -0.2960
     27 C         140.9433  141.3487  171.2776 C.3     1  UNL1        0.0884
     28 H         142.9024  142.0464  171.3406 H       1  UNL1        0.1233
@<TRIPOS>BOND
     1    14    15    1
     2    15    16   ar
     3    16    17   ar
     4    17    18   ar
     5    18    19   ar
     6    19    12    1
     7    12     1    1
     8     1     2   ar
     9     2     3   ar
    10     3    21    1
    11    23    21    1
    12    23    24    1
    13    24    25    1
    14    25    26    1
    15    26    27    1
    16     3     4   ar
    17     4     5   ar
    18     5     6   ar
    19     6     7    1
    20     7     8   am
    21     7     9    2
    22    19    20   ar
    23    20    15   ar
    24     6     1   ar
    25    27    23    1
    26    12    13    1
    27    21    22    1
    28    26    28    1
    29     8    10    1
    30     8    11    1
@<TRIPOS>MOLECULE
*****
 28 30 0 0 0
SMALL
GASTEIGER

@<TRIPOS>ATOM
      1 C         141.8796  140.8281  167.2959 C.ar    1  UNL1        0.1409
      2 N         140.6941  140.2809  166.5576 N.ar    1  UNL1       -0.1986
      3 C         139.5126  139.7572  167.3191 C.ar    1  UNL1        0.2181
      4 N         139.5165  139.7808  168.8189 N.ar    1  UNL1       -0.2120
      5 C         140.7020  140.3280  169.5572 C.ar    1  UNL1        0.1091
      6 C         141.8836  140.8516  168.7958 C.ar    1  UNL1        0.1040
      7 C         143.0691  141.3989  169.5341 C.2     1  UNL1        0.2470
      8 N         143.6619  140.6288  170.6767 N.am    1  UNL1       -0.3252
      9 O         143.6617  142.7162  169.1299 O.2     1  UNL1       -0.2702
     10 H         143.2729  139.7642  170.9420 H       1  UNL1        0.1453
     11 H         144.4400  140.9879  171.1613 H       1  UNL1        0.1453
     12 N         143.0611  141.3517  166.5345 N.pl3   1  UNL1       -0.2977
     13 H         143.9335  140.9014  166.6088 H       1  UNL1        0.1536
     14 C         140.0350  144.7105  163.9730 C.3     1  UNL1        0.0311
     15 C         141.4004  144.2407  164.3790 C.ar    1  UNL1       -0.0206
     16 C         142.6182  144.9804  163.9104 C.ar    1  UNL1       -0.0042
     17 C         143.9837  144.5106  164.3164 C.ar    1  UNL1        0.0009
     18 C         144.1313  143.3010  165.1911 C.ar    1  UNL1        0.0146
     19 C         142.9135  142.5613  165.6598 C.ar    1  UNL1        0.0491
     20 C         141.5481  143.0311  165.2537 C.ar    1  UNL1        0.0104
     21 N         138.3271  139.2100  166.5807 N.pl3   1  UNL1       -0.3032
     22 H         137.4846  139.0387  167.0604 H       1  UNL1        0.1496
     23 C         138.4252  138.9239  165.1115 C.3     1  UNL1        0.0888
     24 C         138.9240  137.6519  164.4924 C.3     1  UNL1        0.0381
     25 C         138.8489  137.8014  163.0017 C.3     1  UNL1        0.0704
     26 N         138.3037  139.1658  162.6996 N.3     1  UNL1       -0.2960
     27 C         138.0419  139.8595  164.0035 C.3     1  UNL1        0.0884
     28 H         137.4351  139.0823  162.1714 H       1  UNL1        0.1233
@<TRIPOS>BOND
     1    14    15    1
     2    15    16   ar
     3    16    17   ar
     4    17    18   ar
     5    18    19   ar
     6    19    12    1
     7    12     1    1
     8     1     2   ar
     9     2     3   ar
    10     3    21    1
    11    23    21    1
    12    23    24    1
    13    24    25    1
    14    25    26    1
    15    26    27    1
    16     3     4   ar
    17     4     5   ar
    18     5     6   ar
    19     6     7    1
    20     7     8   am
    21     7     9    2
    22    19    20   ar
    23    20    15   ar
    24     6     1   ar
    25    27    23    1
    26    12    13    1
    27    21    22    1
    28    26    28    1
    29     8    10    1
    30     8    11    1
@<TRIPOS>MOLECULE
*****
 28 30 0 0 0
SMALL
GASTEIGER

@<TRIPOS>ATOM
      1 C         140.3633  141.6504  167.2026 C.ar    1  UNL1        0.1409
      2 N         139.8005  140.5889  166.3045 N.ar    1  UNL1       -0.1986
      3 C         138.9994  139.4619  166.8861 C.ar    1  UNL1        0.2181
      4 N         138.7610  139.3964  168.3655 N.ar    1  UNL1       -0.2120
      5 C         139.3238  140.4580  169.2636 C.ar    1  UNL1        0.1091
      6 C         140.1249  141.5849  168.6821 C.ar    1  UNL1        0.1040
      7 C         140.6877  142.6465  169.5801 C.2     1  UNL1        0.2470
      8 N         139.7865  143.3848  170.5249 N.am    1  UNL1       -0.3252
      9 O         142.1518  142.9696  169.5334 O.2     1  UNL1       -0.2702
     10 H         138.8256  143.1727  170.5555 H       1  UNL1        0.1453
     11 H         140.1559  144.0815  171.1143 H       1  UNL1        0.1453
     12 N         141.1644  142.7774  166.6211 N.pl3   1  UNL1       -0.2977
     13 H         142.0177  143.0401  167.0360 H       1  UNL1        0.1536
     14 C         141.9382  144.5311  161.7914 C.3     1  UNL1        0.0311
     15 C         141.0524  144.3810  162.9926 C.ar    1  UNL1       -0.0206
     16 C         139.6677  144.9576  162.9802 C.ar    1  UNL1       -0.0042
     17 C         138.7819  144.8074  164.1813 C.ar    1  UNL1        0.0009
     18 C         139.2808  144.0807  165.3950 C.ar    1  UNL1        0.0146
     19 C         140.6654  143.5041  165.4074 C.ar    1  UNL1        0.0491
     20 C         141.5512  143.6543  164.2063 C.ar    1  UNL1        0.0104
     21 N         138.4366  138.4003  165.9881 N.pl3   1  UNL1       -0.3032
     22 H         137.5615  137.9973  166.1906 H       1  UNL1        0.1496
     23 C         139.2071  137.9529  164.7814 C.3     1  UNL1        0.0888
     24 C         140.6337  137.4893  164.7682 C.3     1  UNL1        0.0381
     25 C         140.9947  137.1403  163.3548 C.3     1  UNL1        0.0704
     26 N         139.7912  137.3882  162.4943 N.3     1  UNL1       -0.2960
     27 C         138.6865  137.8904  163.3760 C.3     1  UNL1        0.0884
     28 H         139.5050  136.5204  162.0411 H       1  UNL1        0.1233
@<TRIPOS>BOND
     1    14    15    1
     2    15    16   ar
     3    16    17   ar
     4    17    18   ar
     5    18    19   ar
     6    19    12    1
     7    12     1    1
     8     1     2   ar
     9     2     3   ar
    10     3    21    1
    11    23    21    1
    12    23    24    1
    13    24    25    1
    14    25    26    1
    15    26    27    1
    16     3     4   ar
    17     4     5   ar
    18     5     6   ar
    19     6     7    1
    20     7     8   am
    21     7     9    2
    22    19    20   ar
    23    20    15   ar
    24     6     1   ar
    25    27    23    1
    26    12    13    1
    27    21    22    1
    28    26    28    1
    29     8    10    1
    30     8    11    1
@<TRIPOS>MOLECULE
*****
 28 30 0 0 0
SMALL
GASTEIGER

@<TRIPOS>ATOM
      1 C         140.1025  140.0561  165.6109 C.ar    1  UNL1        0.1409
      2 N         140.1767  140.3449  167.0810 N.ar    1  UNL1       -0.1986
      3 C         139.1736  139.7373  168.0163 C.ar    1  UNL1        0.2181
      4 N         138.0964  138.8409  167.4814 N.ar    1  UNL1       -0.2120
      5 C         138.0222  138.5522  166.0113 C.ar    1  UNL1        0.1091
      6 C         139.0252  139.1597  165.0761 C.ar    1  UNL1        0.1040
      7 C         138.9511  138.8710  163.6060 C.2     1  UNL1        0.2470
      8 N         138.8123  137.4568  163.1256 N.am    1  UNL1       -0.3252
      9 O         139.0157  139.9964  162.6164 O.2     1  UNL1       -0.2702
     10 H         138.7699  136.7182  163.7751 H       1  UNL1        0.1453
     11 H         138.7636  137.2673  162.1607 H       1  UNL1        0.1453
     12 N         141.1056  140.6637  164.6757 N.pl3   1  UNL1       -0.2977
     13 H         141.7612  140.0903  164.2168 H       1  UNL1        0.1536
     14 C         143.6676  145.0218  163.4741 C.3     1  UNL1        0.0311
     15 C         142.3908  144.3240  163.8388 C.ar    1  UNL1       -0.0206
     16 C         141.1182  145.1076  163.9674 C.ar    1  UNL1       -0.0042
     17 C         139.8414  144.4099  164.3321 C.ar    1  UNL1        0.0009
     18 C         139.8372  142.9286  164.5682 C.ar    1  UNL1        0.0146
     19 C         141.1098  142.1451  164.4396 C.ar    1  UNL1        0.0491
     20 C         142.3866  142.8428  164.0749 C.ar    1  UNL1        0.0104
     21 N         139.2478  140.0261  169.4863 N.pl3   1  UNL1       -0.3032
     22 H         138.4222  140.0763  170.0204 H       1  UNL1        0.1496
     23 C         140.5798  140.2384  170.1427 C.3     1  UNL1        0.0888
     24 C         141.8208  139.4315  169.9001 C.3     1  UNL1        0.0381
     25 C         142.9126  139.9892  170.7643 C.3     1  UNL1        0.0704
     26 N         142.3464  141.1408  171.5410 N.3     1  UNL1       -0.2960
     27 C         140.9046  141.2948  171.1568 C.3     1  UNL1        0.0884
     28 H         142.8575  141.9945  171.3164 H       1  UNL1        0.1233
@<TRIPOS>BOND
     1    14    15    1
     2    15    16   ar
     3    16    17   ar
     4    17    18   ar
     5    18    19   ar
     6    19    12    1
     7    12     1    1
     8     1     2   ar
     9     2     3   ar
    10     3    21    1
    11    23    21    1
    12    23    24    1
    13    24    25    1
    14    25    26    1
    15    26    27    1
    16     3     4   ar
    17     4     5   ar
    18     5     6   ar
    19     6     7    1
    20     7     8   am
    21     7     9    2
    22    19    20   ar
    23    20    15   ar
    24     6     1   ar
    25    27    23    1
    26    12    13    1
    27    21    22    1
    28    26    28    1
    29     8    10    1
    30     8    11    1
@<TRIPOS>MOLECULE
*****
 28 30 0 0 0
SMALL
GASTEIGER

@<TRIPOS>ATOM
      1 C         141.4970  140.8308  166.7392 C.ar    1  UNL1        0.1409
      2 N         142.4633  141.6718  165.9588 N.ar    1  UNL1       -0.1986
      3 C         143.4618  142.5297  166.6780 C.ar    1  UNL1        0.2181
      4 N         143.4940  142.5465  168.1775 N.ar    1  UNL1       -0.2120
      5 C         142.5278  141.7055  168.9579 C.ar    1  UNL1        0.1091
      6 C         141.5293  140.8477  168.2389 C.ar    1  UNL1        0.1040
      7 C         140.5630  140.0068  169.0193 C.2     1  UNL1        0.2470
      8 N         140.9811  139.4019  170.3267 N.am    1  UNL1       -0.3252
      9 O         139.1786  139.7706  168.4922 O.2     1  UNL1       -0.2702
     10 H         141.8897  139.5569  170.6726 H       1  UNL1        0.1453
     11 H         140.3469  138.8500  170.8389 H       1  UNL1        0.1453
     12 N         140.4985  139.9730  166.0201 N.pl3   1  UNL1       -0.2977
     13 H         140.5177  138.9952  166.1332 H       1  UNL1        0.1536
     14 C         137.7299  144.1299  164.5867 C.3     1  UNL1        0.0311
     15 C         138.0866  142.6835  164.4120 C.ar    1  UNL1       -0.0206
     16 C         137.4157  141.8690  163.3460 C.ar    1  UNL1       -0.0042
     17 C         137.7724  140.4225  163.1713 C.ar    1  UNL1        0.0009
     18 C         138.8000  139.7905  164.0627 C.ar    1  UNL1        0.0146
     19 C         139.4709  140.6050  165.1287 C.ar    1  UNL1        0.0491
     20 C         139.1142  142.0515  165.3034 C.ar    1  UNL1        0.0104
     21 N         144.4281  143.3706  165.8975 N.pl3   1  UNL1       -0.3032
     22 H         145.2571  143.6900  166.3219 H       1  UNL1        0.1496
     23 C         144.1314  143.7250  164.4705 C.3     1  UNL1        0.0888
     24 C         144.5009  142.9123  163.2651 C.3     1  UNL1        0.0381
     25 C         144.0110  143.6392  162.0479 C.3     1  UNL1        0.0704
     26 N         143.3386  144.9012  162.5011 N.3     1  UNL1       -0.2960
     27 C         143.4130  144.9542  163.9983 C.3     1  UNL1        0.0884
     28 H         142.3631  144.9001  162.2029 H       1  UNL1        0.1233
@<TRIPOS>BOND
     1    14    15    1
     2    15    16   ar
     3    16    17   ar
     4    17    18   ar
     5    18    19   ar
     6    19    12    1
     7    12     1    1
     8     1     2   ar
     9     2     3   ar
    10     3    21    1
    11    23    21    1
    12    23    24    1
    13    24    25    1
    14    25    26    1
    15    26    27    1
    16     3     4   ar
    17     4     5   ar
    18     5     6   ar
    19     6     7    1
    20     7     8   am
    21     7     9    2
    22    19    20   ar
    23    20    15   ar
    24     6     1   ar
    25    27    23    1
    26    12    13    1
    27    21    22    1
    28    26    28    1
    29     8    10    1
    30     8    11    1
@<TRIPOS>MOLECULE
*****
 28 30 0 0 0
SMALL
GASTEIGER

@<TRIPOS>ATOM
      1 C         140.7655  139.9050  165.8401 C.ar    1  UNL1        0.1409
      2 N         141.2244  140.0033  167.2648 N.ar    1  UNL1       -0.1986
      3 C         142.5153  139.3636  167.6828 C.ar    1  UNL1        0.2181
      4 N         143.3471  138.6257  166.6761 N.ar    1  UNL1       -0.2120
      5 C         142.8882  138.5274  165.2514 C.ar    1  UNL1        0.1091
      6 C         141.5974  139.1670  164.8334 C.ar    1  UNL1        0.1040
      7 C         141.1385  139.0687  163.4087 C.2     1  UNL1        0.2470
      8 N         142.0549  139.4816  162.2954 N.am    1  UNL1       -0.3252
      9 O         139.7630  138.5575  163.0974 O.2     1  UNL1       -0.2702
     10 H         142.9576  139.8172  162.4997 H       1  UNL1        0.1453
     11 H         141.7537  139.4171  161.3603 H       1  UNL1        0.1453
     12 N         139.4747  140.5446  165.4221 N.pl3   1  UNL1       -0.2977
     13 H         138.6391  140.0244  165.4403 H       1  UNL1        0.1536
     14 C         142.0191  144.8514  164.0160 C.3     1  UNL1        0.0311
     15 C         140.7293  144.1302  164.2735 C.ar    1  UNL1       -0.0206
     16 C         139.4220  144.8411  164.0854 C.ar    1  UNL1       -0.0042
     17 C         138.1322  144.1199  164.3429 C.ar    1  UNL1        0.0009
     18 C         138.1498  142.6877  164.7885 C.ar    1  UNL1        0.0146
     19 C         139.4571  141.9768  164.9766 C.ar    1  UNL1        0.0491
     20 C         140.7469  142.6981  164.7191 C.ar    1  UNL1        0.0104
     21 N         142.9742  139.4619  169.1074 N.pl3   1  UNL1       -0.3032
     22 H         143.4037  138.6892  169.5407 H       1  UNL1        0.1496
     23 C         142.7788  140.7376  169.8720 C.3     1  UNL1        0.0888
     24 C         143.3421  142.0792  169.5075 C.3     1  UNL1        0.0381
     25 C         142.8972  143.0664  170.5455 C.3     1  UNL1        0.0704
     26 N         142.0589  142.3349  171.5516 N.3     1  UNL1       -0.2960
     27 C         141.9857  140.8957  171.1353 C.3     1  UNL1        0.0884
     28 H         141.1213  142.7358  171.5778 H       1  UNL1        0.1233
@<TRIPOS>BOND
     1    14    15    1
     2    15    16   ar
     3    16    17   ar
     4    17    18   ar
     5    18    19   ar
     6    19    12    1
     7    12     1    1
     8     1     2   ar
     9     2     3   ar
    10     3    21    1
    11    23    21    1
    12    23    24    1
    13    24    25    1
    14    25    26    1
    15    26    27    1
    16     3     4   ar
    17     4     5   ar
    18     5     6   ar
    19     6     7    1
    20     7     8   am
    21     7     9    2
    22    19    20   ar
    23    20    15   ar
    24     6     1   ar
    25    27    23    1
    26    12    13    1
    27    21    22    1
    28    26    28    1
    29     8    10    1
    30     8    11    1
@<TRIPOS>MOLECULE
*****
 28 30 0 0 0
SMALL
GASTEIGER

@<TRIPOS>ATOM
      1 C         140.7589  139.7796  166.9938 C.ar    1  UNL1        0.1409
      2 N         140.4757  139.1858  165.6458 N.ar    1  UNL1       -0.1986
      3 C         139.0998  138.6838  165.3215 C.ar    1  UNL1        0.2181
      4 N         138.0073  138.7756  166.3451 N.ar    1  UNL1       -0.2120
      5 C         138.2906  139.3694  167.6932 C.ar    1  UNL1        0.1091
      6 C         139.6663  139.8714  168.0175 C.ar    1  UNL1        0.1040
      7 C         139.9496  140.4652  169.3655 C.2     1  UNL1        0.2470
      8 N         139.4111  139.8091  170.6022 N.am    1  UNL1       -0.3252
      9 O         140.7714  141.7152  169.4767 O.2     1  UNL1       -0.2702
     10 H         138.8718  138.9888  170.5292 H       1  UNL1        0.1453
     11 H         139.5970  140.1989  171.4870 H       1  UNL1        0.1453
     12 N         142.1347  140.2816  167.3181 N.pl3   1  UNL1       -0.2977
     13 H         142.4572  140.2676  168.2482 H       1  UNL1        0.1536
     14 C         144.1131  144.2833  164.6587 C.3     1  UNL1        0.0311
     15 C         144.0082  142.8058  164.8957 C.ar    1  UNL1       -0.0206
     16 C         144.7877  141.8518  164.0401 C.ar    1  UNL1       -0.0042
     17 C         144.6829  140.3744  164.2771 C.ar    1  UNL1        0.0009
     18 C         143.7985  139.8509  165.3697 C.ar    1  UNL1        0.0146
     19 C         143.0191  140.8050  166.2254 C.ar    1  UNL1        0.0491
     20 C         143.1239  142.2824  165.9884 C.ar    1  UNL1        0.0104
     21 N         138.8165  138.0900  163.9735 N.pl3   1  UNL1       -0.3032
     22 H         139.0054  137.1385  163.8051 H       1  UNL1        0.1496
     23 C         138.2454  138.9458  162.8819 C.3     1  UNL1        0.0888
     24 C         138.0591  138.5403  161.4498 C.3     1  UNL1        0.0381
     25 C         137.4589  139.7012  160.7136 C.3     1  UNL1        0.0704
     26 N         137.2744  140.8243  161.6907 N.3     1  UNL1       -0.2960
     27 C         137.7604  140.3574  163.0308 C.3     1  UNL1        0.0884
     28 H         136.2871  141.0741  161.7484 H       1  UNL1        0.1233
@<TRIPOS>BOND
     1    14    15    1
     2    15    16   ar
     3    16    17   ar
     4    17    18   ar
     5    18    19   ar
     6    19    12    1
     7    12     1    1
     8     1     2   ar
     9     2     3   ar
    10     3    21    1
    11    23    21    1
    12    23    24    1
    13    24    25    1
    14    25    26    1
    15    26    27    1
    16     3     4   ar
    17     4     5   ar
    18     5     6   ar
    19     6     7    1
    20     7     8   am
    21     7     9    2
    22    19    20   ar
    23    20    15   ar
    24     6     1   ar
    25    27    23    1
    26    12    13    1
    27    21    22    1
    28    26    28    1
    29     8    10    1
    30     8    11    1
@<TRIPOS>MOLECULE
*****
 28 30 0 0 0
SMALL
GASTEIGER

@<TRIPOS>ATOM
      1 C         140.5248  141.7404  167.1455 C.ar    1  UNL1        0.1409
      2 N         139.9484  140.6830  166.2513 N.ar    1  UNL1       -0.1986
      3 C         139.1348  139.5672  166.8372 C.ar    1  UNL1        0.2181
      4 N         138.8977  139.5089  168.3172 N.ar    1  UNL1       -0.2120
      5 C         139.4741  140.5663  169.2113 C.ar    1  UNL1        0.1091
      6 C         140.2876  141.6821  168.6255 C.ar    1  UNL1        0.1040
      7 C         140.8640  142.7396  169.5197 C.2     1  UNL1        0.2470
      8 N         139.9588  143.5649  170.3853 N.am    1  UNL1       -0.3252
      9 O         142.3457  142.9717  169.5482 O.2     1  UNL1       -0.2702
     10 H         138.9863  143.4125  170.3666 H       1  UNL1        0.1453
     11 H         140.3371  144.2589  170.9722 H       1  UNL1        0.1453
     12 N         141.3383  142.8562  166.5597 N.pl3   1  UNL1       -0.2977
     13 H         141.3907  143.7231  167.0233 H       1  UNL1        0.1536
     14 C         145.5734  141.2885  163.9893 C.3     1  UNL1        0.0311
     15 C         144.1895  141.8673  163.9824 C.ar    1  UNL1       -0.0206
     16 C         143.5394  142.2410  162.6833 C.ar    1  UNL1       -0.0042
     17 C         142.1556  142.8197  162.6763 C.ar    1  UNL1        0.0009
     18 C         141.4219  143.0248  163.9684 C.ar    1  UNL1        0.0146
     19 C         142.0720  142.6511  165.2675 C.ar    1  UNL1        0.0491
     20 C         143.4558  142.0724  165.2745 C.ar    1  UNL1        0.0104
     21 N         138.5584  138.5097  165.9430 N.pl3   1  UNL1       -0.3032
     22 H         137.6755  138.1230  166.1437 H       1  UNL1        0.1496
     23 C         139.3272  138.0414  164.7431 C.3     1  UNL1        0.0888
     24 C         140.7263  137.5004  164.7484 C.3     1  UNL1        0.0381
     25 C         141.0957  137.1566  163.3359 C.3     1  UNL1        0.0704
     26 N         139.9249  137.4850  162.4576 N.3     1  UNL1       -0.2960
     27 C         138.8319  138.0319  163.3273 C.3     1  UNL1        0.0884
     28 H         139.6008  136.6422  161.9832 H       1  UNL1        0.1233
@<TRIPOS>BOND
     1    14    15    1
     2    15    16   ar
     3    16    17   ar
     4    17    18   ar
     5    18    19   ar
     6    19    12    1
     7    12     1    1
     8     1     2   ar
     9     2     3   ar
    10     3    21    1
    11    23    21    1
    12    23    24    1
    13    24    25    1
    14    25    26    1
    15    26    27    1
    16     3     4   ar
    17     4     5   ar
    18     5     6   ar
    19     6     7    1
    20     7     8   am
    21     7     9    2
    22    19    20   ar
    23    20    15   ar
    24     6     1   ar
    25    27    23    1
    26    12    13    1
    27    21    22    1
    28    26    28    1
    29     8    10    1
    30     8    11    1
