@<TRIPOS>MOLECULE
*****
 33 37 0 0 0
SMALL
GASTEIGER

@<TRIPOS>ATOM
      1 C         141.0680  142.6136  166.5351 C.2     1  UNL1       -0.0138
      2 C         142.5144  142.3661  166.2246 C.2     1  UNL1        0.0039
      3 C         143.0605  142.7104  164.8706 C.2     1  UNL1        0.1174
      4 C         142.1601  143.3021  163.8271 C.2     1  UNL1        0.2360
      5 N         142.4125  143.7397  162.4147 N.2     1  UNL1       -0.0297
      6 C         141.1220  144.2575  161.8522 C.2     1  UNL1        0.3923
      7 N         140.0720  144.1401  162.9170 N.2     1  UNL1       -0.0336
      8 C         140.7136  143.5496  164.1375 C.2     1  UNL1        0.2178
      9 C         140.1675  143.2053  165.4915 C.3     1  UNL1        0.1040
     10 C         140.9174  144.7980  160.4681 C.2     1  UNL1        0.1883
     11 N         139.9016  145.8250  160.0637 N.2     1  UNL1       -0.0797
     12 O         140.0491  146.0681  158.5909 O.2     1  UNL1       -0.3845
     13 C         141.1560  145.1912  158.0849 C.3     1  UNL1        0.1669
     14 C         142.2782  144.2628  157.7264 C.3     1  UNL1        0.0431
     15 C         142.7633  144.1847  156.3092 C.3     1  UNL1        0.0037
     16 C         142.1262  145.0350  155.2505 C.3     1  UNL1        0.0002
     17 C         141.0040  145.9635  155.6089 C.3     1  UNL1        0.0037
     18 C         140.5189  146.0416  157.0261 C.3     1  UNL1        0.0431
     19 C         141.6927  144.4063  159.2450 C.3     1  UNL1        0.0999
     20 C         140.0242  140.8817  168.1664 C.ar    1  UNL1        0.0711
     21 C         139.4782  140.5374  169.5204 C.ar    1  UNL1        0.0038
     22 C         139.4298  141.5807  170.5970 C.ar    1  UNL1       -0.0001
     23 C         139.9274  142.9683  170.3196 C.ar    1  UNL1       -0.0000
     24 C         140.4735  143.3126  168.9656 C.ar    1  UNL1       -0.0004
     25 C         140.5219  142.2693  167.8891 C.ar    1  UNL1        0.0004
     26 F         140.1210  138.7950  166.0131 F       1  UNL1       -0.1659
     27 C         140.0726  139.8383  167.0897 C.3     1  UNL1        0.4186
     28 F         141.4569  139.4558  167.5227 F       1  UNL1       -0.1659
     29 F         138.6884  140.2209  166.6568 F       1  UNL1       -0.1659
     30 C         144.5070  142.4629  164.5602 C.3     1  UNL1        0.4221
     31 F         145.9535  142.2154  164.2497 F       1  UNL1       -0.1657
     32 F         144.1194  141.3281  163.6591 F       1  UNL1       -0.1657
     33 F         144.8945  143.5976  165.4613 F       1  UNL1       -0.1657
@<TRIPOS>BOND
     1    26    27    1
     2    27    28    1
     3    27    29    1
     4    27    20    1
     5    20    21   ar
     6    21    22   ar
     7    22    23   ar
     8    23    24   ar
     9    24    25   ar
    10    25     1    1
    11     1     2    2
    12     2     3    1
    13     3    30    1
    14    30    31    1
    15    30    32    1
    16    30    33    1
    17     3     4    2
    18     4     5    1
    19     5     6    2
    20     6    10    1
    21    10    11    2
    22    11    12    1
    23    12    13    1
    24    13    14    1
    25    14    15    1
    26    15    16    1
    27    16    17    1
    28    17    18    1
    29    13    19    1
    30     6     7    1
    31     7     8    2
    32     8     9    1
    33    25    20   ar
    34     9     1    1
    35     8     4    1
    36    19    10    1
    37    18    13    1
@<TRIPOS>MOLECULE
*****
 33 37 0 0 0
SMALL
GASTEIGER

@<TRIPOS>ATOM
      1 C         140.2607  141.2137  166.9505 C.2     1  UNL1       -0.0138
      2 C         139.5649  139.8947  167.1120 C.2     1  UNL1        0.0039
      3 C         138.8757  139.2618  165.9396 C.2     1  UNL1        0.1174
      4 C         138.8823  139.9479  164.6057 C.2     1  UNL1        0.2360
      5 N         138.2925  139.5696  163.2795 N.2     1  UNL1       -0.0297
      6 C         138.6238  140.6548  162.2984 C.2     1  UNL1        0.3923
      7 N         139.4183  141.7038  163.0182 N.2     1  UNL1       -0.0336
      8 C         139.5781  141.2669  164.4443 C.2     1  UNL1        0.2178
      9 C         140.2673  141.8998  165.6167 C.3     1  UNL1        0.1040
     10 C         138.2297  140.6855  160.8514 C.2     1  UNL1        0.1883
     11 N         137.3541  139.6865  160.1546 N.2     1  UNL1       -0.0797
     12 O         137.2252  140.1043  158.7198 O.2     1  UNL1       -0.3845
     13 C         138.0212  141.3615  158.5297 C.3     1  UNL1        0.1669
     14 C         138.8539  142.6085  158.4919 C.3     1  UNL1        0.0431
     15 C         139.0029  143.3723  157.2096 C.3     1  UNL1        0.0037
     16 C         138.3191  142.8890  155.9650 C.3     1  UNL1        0.0002
     17 C         137.4864  141.6420  156.0028 C.3     1  UNL1        0.0037
     18 C         137.3374  140.8783  157.2851 C.3     1  UNL1        0.0431
     19 C         138.6419  141.7207  159.8471 C.3     1  UNL1        0.0999
     20 C         142.2074  141.2396  168.6710 C.ar    1  UNL1        0.0711
     21 C         142.8966  141.8724  169.8434 C.ar    1  UNL1        0.0038
     22 C         142.3283  143.1123  170.4676 C.ar    1  UNL1       -0.0001
     23 C         141.0709  143.7192  169.9196 C.ar    1  UNL1       -0.0000
     24 C         140.3817  143.0864  168.7472 C.ar    1  UNL1       -0.0004
     25 C         140.9499  141.8466  168.1229 C.ar    1  UNL1        0.0004
     26 F         143.3440  138.7598  167.4223 F       1  UNL1       -0.1659
     27 C         142.7757  139.9996  168.0466 C.3     1  UNL1        0.4186
     28 F         142.2152  139.1776  169.1691 F       1  UNL1       -0.1659
     29 F         143.3362  140.8218  166.9242 F       1  UNL1       -0.1659
     30 C         138.1799  137.9428  166.1011 C.3     1  UNL1        0.4221
     31 F         137.4841  136.6238  166.2625 F       1  UNL1       -0.1657
     32 F         137.1736  138.5848  167.0094 F       1  UNL1       -0.1657
     33 F         139.1863  137.3008  165.1928 F       1  UNL1       -0.1657
@<TRIPOS>BOND
     1    26    27    1
     2    27    28    1
     3    27    29    1
     4    27    20    1
     5    20    21   ar
     6    21    22   ar
     7    22    23   ar
     8    23    24   ar
     9    24    25   ar
    10    25     1    1
    11     1     2    2
    12     2     3    1
    13     3    30    1
    14    30    31    1
    15    30    32    1
    16    30    33    1
    17     3     4    2
    18     4     5    1
    19     5     6    2
    20     6    10    1
    21    10    11    2
    22    11    12    1
    23    12    13    1
    24    13    14    1
    25    14    15    1
    26    15    16    1
    27    16    17    1
    28    17    18    1
    29    13    19    1
    30     6     7    1
    31     7     8    2
    32     8     9    1
    33    25    20   ar
    34     9     1    1
    35     8     4    1
    36    19    10    1
    37    18    13    1
@<TRIPOS>MOLECULE
*****
 33 37 0 0 0
SMALL
GASTEIGER

@<TRIPOS>ATOM
      1 C         141.5845  142.2682  166.4754 C.2     1  UNL1       -0.0138
      2 C         140.2207  142.8894  166.4120 C.2     1  UNL1        0.0039
      3 C         139.7382  143.5109  165.1349 C.2     1  UNL1        0.1174
      4 C         140.6196  143.5113  163.9212 C.2     1  UNL1        0.2360
      5 N         140.4172  144.0447  162.5339 N.2     1  UNL1       -0.0297
      6 C         141.6559  143.7531  161.7399 C.2     1  UNL1        0.3923
      7 N         142.6239  143.0396  162.6364 N.2     1  UNL1       -0.0336
      8 C         141.9834  142.8901  163.9845 C.2     1  UNL1        0.2178
      9 C         142.4659  142.2686  165.2616 C.3     1  UNL1        0.1040
     10 C         141.8862  144.1121  160.3019 C.2     1  UNL1        0.1883
     11 N         143.0657  143.7048  159.4694 N.2     1  UNL1       -0.0797
     12 O         142.8859  144.2824  158.0968 O.2     1  UNL1       -0.3845
     13 C         141.5953  145.0468  158.0809 C.3     1  UNL1        0.1669
     14 C         140.2878  145.7694  158.2154 C.3     1  UNL1        0.0431
     15 C         139.7156  146.5091  157.0427 C.3     1  UNL1        0.0037
     16 C         140.4509  146.5261  155.7354 C.3     1  UNL1        0.0002
     17 C         141.7584  145.8036  155.6008 C.3     1  UNL1        0.0037
     18 C         142.3306  145.0639  156.7736 C.3     1  UNL1        0.0431
     19 C         140.9775  144.9415  159.4437 C.3     1  UNL1        0.0999
     20 C         141.5650  140.2948  168.1651 C.ar    1  UNL1        0.0711
     21 C         142.0475  139.6733  169.4422 C.ar    1  UNL1        0.0038
     22 C         143.0320  140.4037  170.3066 C.ar    1  UNL1       -0.0001
     23 C         143.5340  141.7556  169.8939 C.ar    1  UNL1       -0.0000
     24 C         143.0515  142.3771  168.6168 C.ar    1  UNL1       -0.0004
     25 C         142.0670  141.6467  167.7525 C.ar    1  UNL1        0.0004
     26 F         139.5959  138.8339  166.4363 F       1  UNL1       -0.1659
     27 C         140.5804  139.5643  167.3007 C.3     1  UNL1        0.4186
     28 F         141.7114  138.9689  166.5157 F       1  UNL1       -0.1659
     29 F         139.4495  140.1599  168.0856 F       1  UNL1       -0.1659
     30 C         138.3744  144.1321  165.0716 C.3     1  UNL1        0.4221
     31 F         137.0105  144.7533  165.0082 F       1  UNL1       -0.1657
     32 F         137.8385  142.8896  164.4243 F       1  UNL1       -0.1657
     33 F         138.9102  145.3746  165.7189 F       1  UNL1       -0.1657
@<TRIPOS>BOND
     1    26    27    1
     2    27    28    1
     3    27    29    1
     4    27    20    1
     5    20    21   ar
     6    21    22   ar
     7    22    23   ar
     8    23    24   ar
     9    24    25   ar
    10    25     1    1
    11     1     2    2
    12     2     3    1
    13     3    30    1
    14    30    31    1
    15    30    32    1
    16    30    33    1
    17     3     4    2
    18     4     5    1
    19     5     6    2
    20     6    10    1
    21    10    11    2
    22    11    12    1
    23    12    13    1
    24    13    14    1
    25    14    15    1
    26    15    16    1
    27    16    17    1
    28    17    18    1
    29    13    19    1
    30     6     7    1
    31     7     8    2
    32     8     9    1
    33    25    20   ar
    34     9     1    1
    35     8     4    1
    36    19    10    1
    37    18    13    1
@<TRIPOS>MOLECULE
*****
 33 37 0 0 0
SMALL
GASTEIGER

@<TRIPOS>ATOM
      1 C         141.1091  142.2971  166.1499 C.2     1  UNL1       -0.0138
      2 C         142.5778  142.1365  165.8908 C.2     1  UNL1        0.0039
      3 C         143.1445  142.4839  164.5461 C.2     1  UNL1        0.1174
      4 C         142.2426  142.9919  163.4606 C.2     1  UNL1        0.2360
      5 N         142.5123  143.4119  162.0460 N.2     1  UNL1       -0.0297
      6 C         141.2104  143.8321  161.4311 C.2     1  UNL1        0.3923
      7 N         140.1360  143.6718  162.4654 N.2     1  UNL1       -0.0336
      8 C         140.7739  143.1525  163.7197 C.2     1  UNL1        0.2178
      9 C         140.2072  142.8051  165.0644 C.3     1  UNL1        0.1040
     10 C         141.0168  144.3260  160.0280 C.2     1  UNL1        0.1883
     11 N         141.7679  145.4496  159.3772 N.2     1  UNL1       -0.0797
     12 O         141.2534  145.6010  157.9764 O.2     1  UNL1       -0.3845
     13 C         140.1844  144.5709  157.7612 C.3     1  UNL1        0.1669
     14 C         139.1416  143.4948  157.6940 C.3     1  UNL1        0.0431
     15 C         138.3567  143.2889  156.4325 C.3     1  UNL1        0.0037
     16 C         138.6147  144.1590  155.2382 C.3     1  UNL1        0.0002
     17 C         139.6575  145.2351  155.3054 C.3     1  UNL1        0.0037
     18 C         140.4424  145.4410  156.5669 C.3     1  UNL1        0.0431
     19 C         140.0382  143.7829  159.0292 C.3     1  UNL1        0.0999
     20 C         139.9405  140.5958  167.7278 C.ar    1  UNL1        0.0711
     21 C         139.3738  140.2484  169.0725 C.ar    1  UNL1        0.0038
     22 C         139.4090  141.2550  170.1839 C.ar    1  UNL1       -0.0001
     23 C         140.0108  142.6090  169.9508 C.ar    1  UNL1       -0.0000
     24 C         140.5776  142.9564  168.6061 C.ar    1  UNL1       -0.0004
     25 C         140.5424  141.9498  167.4946 C.ar    1  UNL1        0.0004
     26 F         139.8701  138.5824  165.5048 F       1  UNL1       -0.1659
     27 C         139.9053  139.5890  166.6163 C.3     1  UNL1        0.4186
     28 F         141.3094  139.1767  166.9454 F       1  UNL1       -0.1659
     29 F         138.5012  140.0015  166.2873 F       1  UNL1       -0.1659
     30 C         144.6132  142.3232  164.2870 C.3     1  UNL1        0.4221
     31 F         146.0818  142.1626  164.0278 F       1  UNL1       -0.1657
     32 F         144.8939  143.5335  165.1275 F       1  UNL1       -0.1657
     33 F         144.3325  141.1130  163.4464 F       1  UNL1       -0.1657
@<TRIPOS>BOND
     1    26    27    1
     2    27    28    1
     3    27    29    1
     4    27    20    1
     5    20    21   ar
     6    21    22   ar
     7    22    23   ar
     8    23    24   ar
     9    24    25   ar
    10    25     1    1
    11     1     2    2
    12     2     3    1
    13     3    30    1
    14    30    31    1
    15    30    32    1
    16    30    33    1
    17     3     4    2
    18     4     5    1
    19     5     6    2
    20     6    10    1
    21    10    11    2
    22    11    12    1
    23    12    13    1
    24    13    14    1
    25    14    15    1
    26    15    16    1
    27    16    17    1
    28    17    18    1
    29    13    19    1
    30     6     7    1
    31     7     8    2
    32     8     9    1
    33    25    20   ar
    34     9     1    1
    35     8     4    1
    36    19    10    1
    37    18    13    1
@<TRIPOS>MOLECULE
*****
 33 37 0 0 0
SMALL
GASTEIGER

@<TRIPOS>ATOM
      1 C         140.2134  141.8793  162.6346 C.2     1  UNL1       -0.0138
      2 C         141.3734  142.7204  163.0783 C.2     1  UNL1        0.0039
      3 C         141.8562  143.8478  162.2146 C.2     1  UNL1        0.1174
      4 C         141.1790  144.1340  160.9072 C.2     1  UNL1        0.2360
      5 N         141.4307  145.1702  159.8521 N.2     1  UNL1       -0.0297
      6 C         140.4263  144.9693  158.7563 C.2     1  UNL1        0.3923
      7 N         139.5538  143.8091  159.1341 N.2     1  UNL1       -0.0336
      8 C         140.0191  143.2929  160.4634 C.2     1  UNL1        0.2178
      9 C         139.5363  142.1655  161.3271 C.3     1  UNL1        0.1040
     10 C         140.3141  145.7854  157.5028 C.2     1  UNL1        0.1883
     11 N         139.4395  146.9887  157.3094 N.2     1  UNL1       -0.0797
     12 O         139.6416  147.4885  155.9097 O.2     1  UNL1       -0.3845
     13 C         140.6411  146.5942  155.2379 C.3     1  UNL1        0.1669
     14 C         141.6467  145.6194  154.7008 C.3     1  UNL1        0.0431
     15 C         142.1434  145.7540  153.2919 C.3     1  UNL1        0.0037
     16 C         141.6343  146.8633  152.4199 C.3     1  UNL1        0.0002
     17 C         140.6286  147.8381  152.9570 C.3     1  UNL1        0.0037
     18 C         140.1320  147.7035  154.3659 C.3     1  UNL1        0.0431
     19 C         141.0567  145.5416  156.2225 C.3     1  UNL1        0.0999
     20 C         138.6450  140.9905  164.5055 C.ar    1  UNL1        0.0711
     21 C         138.1622  139.8631  165.3692 C.ar    1  UNL1        0.0038
     22 C         138.7651  138.4972  165.2256 C.ar    1  UNL1       -0.0001
     23 C         139.8507  138.2586  164.2184 C.ar    1  UNL1       -0.0000
     24 C         140.3335  139.3860  163.3547 C.ar    1  UNL1       -0.0004
     25 C         139.7306  140.7519  163.4983 C.ar    1  UNL1        0.0004
     26 F         137.4393  143.7226  164.7926 F       1  UNL1       -0.1659
     27 C         138.0421  142.3566  164.6490 C.3     1  UNL1        0.4186
     28 F         136.9998  142.0037  163.6297 F       1  UNL1       -0.1659
     29 F         139.0845  142.7095  165.6683 F       1  UNL1       -0.1659
     30 C         143.0161  144.6890  162.6584 C.3     1  UNL1        0.4221
     31 F         144.1760  145.5301  163.1022 F       1  UNL1       -0.1657
     32 F         143.9315  143.8912  161.7778 F       1  UNL1       -0.1657
     33 F         142.1007  145.4867  163.5390 F       1  UNL1       -0.1657
@<TRIPOS>BOND
     1    26    27    1
     2    27    28    1
     3    27    29    1
     4    27    20    1
     5    20    21   ar
     6    21    22   ar
     7    22    23   ar
     8    23    24   ar
     9    24    25   ar
    10    25     1    1
    11     1     2    2
    12     2     3    1
    13     3    30    1
    14    30    31    1
    15    30    32    1
    16    30    33    1
    17     3     4    2
    18     4     5    1
    19     5     6    2
    20     6    10    1
    21    10    11    2
    22    11    12    1
    23    12    13    1
    24    13    14    1
    25    14    15    1
    26    15    16    1
    27    16    17    1
    28    17    18    1
    29    13    19    1
    30     6     7    1
    31     7     8    2
    32     8     9    1
    33    25    20   ar
    34     9     1    1
    35     8     4    1
    36    19    10    1
    37    18    13    1
@<TRIPOS>MOLECULE
*****
 33 37 0 0 0
SMALL
GASTEIGER

@<TRIPOS>ATOM
      1 C         140.7549  142.0530  165.2193 C.2     1  UNL1       -0.0138
      2 C         140.2500  143.3610  164.6863 C.2     1  UNL1        0.0039
      3 C         140.6544  143.8190  163.3164 C.2     1  UNL1        0.1174
      4 C         141.5637  142.9689  162.4794 C.2     1  UNL1        0.2360
      5 N         142.1290  143.1578  161.1029 N.2     1  UNL1       -0.0297
      6 C         142.9833  141.9665  160.7852 C.2     1  UNL1        0.3923
      7 N         142.9460  141.0413  161.9653 N.2     1  UNL1       -0.0336
      8 C         142.0686  141.6609  163.0124 C.2     1  UNL1        0.2178
      9 C         141.6642  141.2029  164.3823 C.3     1  UNL1        0.1040
     10 C         143.7417  141.7401  159.5111 C.2     1  UNL1        0.1883
     11 N         144.8929  142.5623  159.0122 N.2     1  UNL1       -0.0797
     12 O         145.3448  141.9821  157.7049 O.2     1  UNL1       -0.3845
     13 C         144.4730  140.8012  157.3957 C.3     1  UNL1        0.1669
     14 C         143.5267  139.6505  157.2215 C.3     1  UNL1        0.0431
     15 C         143.6279  138.7733  156.0090 C.3     1  UNL1        0.0037
     16 C         144.6754  139.0467  154.9707 C.3     1  UNL1        0.0002
     17 C         145.6217  140.1974  155.1449 C.3     1  UNL1        0.0037
     18 C         145.5205  141.0746  156.3574 C.3     1  UNL1        0.0431
     19 C         143.4822  140.6516  158.5120 C.3     1  UNL1        0.0999
     20 C         139.5118  140.3620  166.7507 C.ar    1  UNL1        0.0711
     21 C         139.1074  139.9040  168.1207 C.ar    1  UNL1        0.0038
     22 C         139.5417  140.6792  169.3291 C.ar    1  UNL1       -0.0001
     23 C         140.3804  141.9122  169.1677 C.ar    1  UNL1       -0.0000
     24 C         140.7848  142.3702  167.7977 C.ar    1  UNL1       -0.0004
     25 C         140.3505  141.5950  166.5893 C.ar    1  UNL1        0.0004
     26 F         138.6431  138.8116  164.3336 F       1  UNL1       -0.1659
     27 C         139.0775  139.5868  165.5421 C.3     1  UNL1        0.4186
     28 F         140.2080  138.6240  165.7534 F       1  UNL1       -0.1659
     29 F         137.9469  140.5496  165.3309 F       1  UNL1       -0.1659
     30 C         140.1495  145.1270  162.7834 C.3     1  UNL1        0.4221
     31 F         139.6446  146.4350  162.2504 F       1  UNL1       -0.1657
     32 F         141.4065  145.8012  163.2472 F       1  UNL1       -0.1657
     33 F         138.8924  144.4528  162.3195 F       1  UNL1       -0.1657
@<TRIPOS>BOND
     1    26    27    1
     2    27    28    1
     3    27    29    1
     4    27    20    1
     5    20    21   ar
     6    21    22   ar
     7    22    23   ar
     8    23    24   ar
     9    24    25   ar
    10    25     1    1
    11     1     2    2
    12     2     3    1
    13     3    30    1
    14    30    31    1
    15    30    32    1
    16    30    33    1
    17     3     4    2
    18     4     5    1
    19     5     6    2
    20     6    10    1
    21    10    11    2
    22    11    12    1
    23    12    13    1
    24    13    14    1
    25    14    15    1
    26    15    16    1
    27    16    17    1
    28    17    18    1
    29    13    19    1
    30     6     7    1
    31     7     8    2
    32     8     9    1
    33    25    20   ar
    34     9     1    1
    35     8     4    1
    36    19    10    1
    37    18    13    1
@<TRIPOS>MOLECULE
*****
 33 37 0 0 0
SMALL
GASTEIGER

@<TRIPOS>ATOM
      1 C         140.2014  141.8610  162.8627 C.2     1  UNL1       -0.0138
      2 C         141.3313  142.7363  163.3178 C.2     1  UNL1        0.0039
      3 C         141.8014  143.8659  162.4500 C.2     1  UNL1        0.1174
      4 C         141.1416  144.1202  161.1271 C.2     1  UNL1        0.2360
      5 N         141.3865  145.1506  160.0649 N.2     1  UNL1       -0.0297
      6 C         140.4080  144.9120  158.9534 C.2     1  UNL1        0.3923
      7 N         139.5583  143.7342  159.3286 N.2     1  UNL1       -0.0336
      8 C         140.0117  143.2449  160.6721 C.2     1  UNL1        0.2178
      9 C         139.5416  142.1153  161.5398 C.3     1  UNL1        0.1040
     10 C         140.2984  145.7110  157.6886 C.2     1  UNL1        0.1883
     11 N         139.4108  146.9005  157.4713 N.2     1  UNL1       -0.0797
     12 O         139.6210  147.3854  156.0675 O.2     1  UNL1       -0.3845
     13 C         140.6386  146.4956  155.4171 C.3     1  UNL1        0.1669
     14 C         141.6619  145.5271  154.9026 C.3     1  UNL1        0.0431
     15 C         142.1713  145.6505  153.4972 C.3     1  UNL1        0.0037
     16 C         141.6574  146.7423  152.6063 C.3     1  UNL1        0.0002
     17 C         140.6340  147.7108  153.1208 C.3     1  UNL1        0.0037
     18 C         140.1246  147.5874  154.5262 C.3     1  UNL1        0.0431
     19 C         141.0572  145.4607  156.4190 C.3     1  UNL1        0.0999
     20 C         140.3583  139.3748  163.6007 C.ar    1  UNL1        0.0711
     21 C         139.8882  138.2452  164.4685 C.ar    1  UNL1        0.0038
     22 C         138.7913  138.4722  165.4660 C.ar    1  UNL1       -0.0001
     23 C         138.1644  139.8287  165.5958 C.ar    1  UNL1       -0.0000
     24 C         138.6344  140.9583  164.7280 C.ar    1  UNL1       -0.0004
     25 C         139.7314  140.7313  163.7305 C.ar    1  UNL1        0.0004
     26 F         142.5523  138.9210  161.6056 F       1  UNL1       -0.1659
     27 C         141.4554  139.1479  162.6031 C.3     1  UNL1        0.4186
     28 F         142.4743  139.5197  163.6392 F       1  UNL1       -0.1659
     29 F         140.4363  138.7762  161.5671 F       1  UNL1       -0.1659
     30 C         142.9313  144.7412  162.9050 C.3     1  UNL1        0.4221
     31 F         144.0612  145.6165  163.3601 F       1  UNL1       -0.1657
     32 F         141.9813  145.5199  163.7659 F       1  UNL1       -0.1657
     33 F         143.8813  143.9625  162.0441 F       1  UNL1       -0.1657
@<TRIPOS>BOND
     1    26    27    1
     2    27    28    1
     3    27    29    1
     4    27    20    1
     5    20    21   ar
     6    21    22   ar
     7    22    23   ar
     8    23    24   ar
     9    24    25   ar
    10    25     1    1
    11     1     2    2
    12     2     3    1
    13     3    30    1
    14    30    31    1
    15    30    32    1
    16    30    33    1
    17     3     4    2
    18     4     5    1
    19     5     6    2
    20     6    10    1
    21    10    11    2
    22    11    12    1
    23    12    13    1
    24    13    14    1
    25    14    15    1
    26    15    16    1
    27    16    17    1
    28    17    18    1
    29    13    19    1
    30     6     7    1
    31     7     8    2
    32     8     9    1
    33    25    20   ar
    34     9     1    1
    35     8     4    1
    36    19    10    1
    37    18    13    1
@<TRIPOS>MOLECULE
*****
 33 37 0 0 0
SMALL
GASTEIGER

@<TRIPOS>ATOM
      1 C         140.2224  140.7929  165.3096 C.2     1  UNL1       -0.0138
      2 C         139.6763  142.1372  164.9294 C.2     1  UNL1        0.0039
      3 C         139.2715  142.4084  163.5108 C.2     1  UNL1        0.1174
      4 C         139.4128  141.3354  162.4722 C.2     1  UNL1        0.2360
      5 N         139.0994  141.3105  161.0056 N.2     1  UNL1       -0.0297
      6 C         139.4519  139.9508  160.4793 C.2     1  UNL1        0.3923
      7 N         139.9831  139.1353  161.6207 N.2     1  UNL1       -0.0336
      8 C         139.9590  139.9911  162.8524 C.2     1  UNL1        0.2178
      9 C         140.3638  139.7198  164.2711 C.3     1  UNL1        0.1040
     10 C         139.2998  139.4878  159.0607 C.2     1  UNL1        0.1883
     11 N         138.2365  139.9283  158.0986 N.2     1  UNL1       -0.0797
     12 O         138.4638  139.2158  156.7984 O.2     1  UNL1       -0.3845
     13 C         139.6676  138.3349  156.9568 C.3     1  UNL1        0.1669
     14 C         140.8807  137.5073  157.2626 C.3     1  UNL1        0.0431
     15 C         141.4651  136.6151  156.2080 C.3     1  UNL1        0.0037
     16 C         140.8366  136.5504  154.8476 C.3     1  UNL1        0.0002
     17 C         139.6235  137.3780  154.5418 C.3     1  UNL1        0.0037
     18 C         139.0391  138.2702  155.5964 C.3     1  UNL1        0.0431
     19 C         140.1843  138.5030  158.3549 C.3     1  UNL1        0.0999
     20 C         142.0760  140.5596  167.1151 C.ar    1  UNL1        0.0711
     21 C         142.4808  140.2884  168.5338 C.ar    1  UNL1        0.0038
     22 C         141.4369  139.9792  169.5655 C.ar    1  UNL1       -0.0001
     23 C         139.9881  139.9413  169.1786 C.ar    1  UNL1       -0.0000
     24 C         139.5833  140.2125  167.7599 C.ar    1  UNL1       -0.0004
     25 C         140.6273  140.5217  166.7282 C.ar    1  UNL1        0.0004
     26 F         144.1640  141.1780  165.0515 F       1  UNL1       -0.1659
     27 C         143.1200  140.8688  166.0833 C.3     1  UNL1        0.4186
     28 F         142.9397  142.3355  166.3404 F       1  UNL1       -0.1659
     29 F         143.3003  139.4021  165.8263 F       1  UNL1       -0.1659
     30 C         138.7253  143.7527  163.1306 C.3     1  UNL1        0.4221
     31 F         138.1792  145.0970  162.7505 F       1  UNL1       -0.1657
     32 F         140.1108  144.3262  163.1682 F       1  UNL1       -0.1657
     33 F         137.3398  143.1792  163.0931 F       1  UNL1       -0.1657
@<TRIPOS>BOND
     1    26    27    1
     2    27    28    1
     3    27    29    1
     4    27    20    1
     5    20    21   ar
     6    21    22   ar
     7    22    23   ar
     8    23    24   ar
     9    24    25   ar
    10    25     1    1
    11     1     2    2
    12     2     3    1
    13     3    30    1
    14    30    31    1
    15    30    32    1
    16    30    33    1
    17     3     4    2
    18     4     5    1
    19     5     6    2
    20     6    10    1
    21    10    11    2
    22    11    12    1
    23    12    13    1
    24    13    14    1
    25    14    15    1
    26    15    16    1
    27    16    17    1
    28    17    18    1
    29    13    19    1
    30     6     7    1
    31     7     8    2
    32     8     9    1
    33    25    20   ar
    34     9     1    1
    35     8     4    1
    36    19    10    1
    37    18    13    1
@<TRIPOS>MOLECULE
*****
 33 37 0 0 0
SMALL
GASTEIGER

@<TRIPOS>ATOM
      1 C         140.5973  142.4585  165.7592 C.2     1  UNL1       -0.0138
      2 C         139.6736  141.4156  165.2031 C.2     1  UNL1        0.0039
      3 C         139.3342  141.4164  163.7420 C.2     1  UNL1        0.1174
      4 C         139.9184  142.4602  162.8369 C.2     1  UNL1        0.2360
      5 N         139.7674  142.7116  161.3659 N.2     1  UNL1       -0.0297
      6 C         140.5978  143.9098  161.0128 C.2     1  UNL1        0.3923
      7 N         141.2620  144.3990  162.2656 N.2     1  UNL1       -0.0336
      8 C         140.8421  143.5031  163.3930 C.2     1  UNL1        0.2178
      9 C         141.1815  143.5022  164.8541 C.3     1  UNL1        0.1040
     10 C         140.7391  144.5129  159.6467 C.2     1  UNL1        0.1883
     11 N         141.7011  145.5957  159.2561 N.2     1  UNL1       -0.0797
     12 O         141.4998  145.8911  157.7993 O.2     1  UNL1       -0.3845
     13 C         140.4135  144.9911  157.2895 C.3     1  UNL1        0.1669
     14 C         139.3184  144.0329  156.9253 C.3     1  UNL1        0.0431
     15 C         138.7943  143.9918  155.5205 C.3     1  UNL1        0.0037
     16 C         139.3652  144.9089  154.4799 C.3     1  UNL1        0.0002
     17 C         140.4603  145.8671  154.8440 C.3     1  UNL1        0.0037
     18 C         140.9844  145.9081  156.2489 C.3     1  UNL1        0.0431
     19 C         139.9434  144.1393  158.4312 C.3     1  UNL1        0.0999
     20 C         142.0469  141.5882  167.7318 C.ar    1  UNL1        0.0711
     21 C         142.3863  141.5873  169.1929 C.ar    1  UNL1        0.0038
     22 C         141.6156  142.4558  170.1424 C.ar    1  UNL1       -0.0001
     23 C         140.5054  143.3252  169.6308 C.ar    1  UNL1       -0.0000
     24 C         140.1660  143.3261  168.1697 C.ar    1  UNL1       -0.0004
     25 C         140.9367  142.4576  167.2203 C.ar    1  UNL1        0.0004
     26 F         143.5884  139.8511  165.8327 F       1  UNL1       -0.1659
     27 C         142.8177  140.7196  166.7822 C.3     1  UNL1        0.4186
     28 F         143.6889  141.8864  166.4222 F       1  UNL1       -0.1659
     29 F         141.9465  139.5529  167.1423 F       1  UNL1       -0.1659
     30 C         138.4105  140.3736  163.1860 C.3     1  UNL1        0.4221
     31 F         137.4869  139.3307  162.6300 F       1  UNL1       -0.1657
     32 F         137.2818  141.3612  163.2085 F       1  UNL1       -0.1657
     33 F         139.5392  139.3859  163.1635 F       1  UNL1       -0.1657
@<TRIPOS>BOND
     1    26    27    1
     2    27    28    1
     3    27    29    1
     4    27    20    1
     5    20    21   ar
     6    21    22   ar
     7    22    23   ar
     8    23    24   ar
     9    24    25   ar
    10    25     1    1
    11     1     2    2
    12     2     3    1
    13     3    30    1
    14    30    31    1
    15    30    32    1
    16    30    33    1
    17     3     4    2
    18     4     5    1
    19     5     6    2
    20     6    10    1
    21    10    11    2
    22    11    12    1
    23    12    13    1
    24    13    14    1
    25    14    15    1
    26    15    16    1
    27    16    17    1
    28    17    18    1
    29    13    19    1
    30     6     7    1
    31     7     8    2
    32     8     9    1
    33    25    20   ar
    34     9     1    1
    35     8     4    1
    36    19    10    1
    37    18    13    1
