@<TRIPOS>MOLECULE
*****
 38 41 0 0 0
SMALL
GASTEIGER

@<TRIPOS>ATOM
      1 C         139.0272  143.1500  161.7245 C.3     1  UNL1        0.0758
      2 C         138.5691  142.3346  160.5519 C.3     1  UNL1        0.0370
      3 C         139.0951  142.6334  159.1793 C.3     1  UNL1        0.0741
      4 N         140.0792  143.7477  158.9794 N.3     1  UNL1       -0.2688
      5 C         140.5373  144.5631  160.1521 C.3     1  UNL1        0.0741
      6 C         140.0113  144.2642  161.5246 C.3     1  UNL1        0.0370
      7 N         138.5940  141.4583  165.2884 N.am    1  UNL1       -0.2887
      8 C         139.1200  141.7571  163.9157 C.2     1  UNL1        0.3007
      9 O         140.2648  140.9618  163.3617 O.2     1  UNL1       -0.2528
     10 N         138.5012  142.8512  163.0972 N.am    1  UNL1       -0.2905
     11 H         137.8426  141.9803  165.6520 H       1  UNL1        0.1510
     12 H         137.7498  143.3731  163.4608 H       1  UNL1        0.1509
     13 C         139.2128  140.3642  166.1069 C.3     1  UNL1        0.0956
     14 C         139.1892  138.0258  164.9750 C.3     1  UNL1        0.0018
     15 C         138.6729  138.9674  166.0224 C.3     1  UNL1        0.0200
     16 C         137.6166  138.5120  166.9852 C.3     1  UNL1        0.0018
     17 C         140.3716  140.6671  167.0101 C.3     1  UNL1        0.1271
     18 N         140.1334  141.2986  168.3496 N.ar    1  UNL1       -0.3061
     19 C         140.5072  142.6966  168.7442 C.ar    1  UNL1        0.0981
     20 C         140.0844  142.9050  170.1683 C.ar    1  UNL1        0.1193
     21 N         139.4493  141.6357  170.6538 N.ar    1  UNL1       -0.2223
     22 C         139.4796  140.6429  169.5298 C.ar    1  UNL1        0.1786
     23 C         140.6052  144.0465  157.6067 C.3     1  UNL1        0.1007
     24 C         139.8878  145.0255  156.7254 C.ar    1  UNL1        0.0129
     25 C         138.8260  144.6927  155.7195 C.ar    1  UNL1        0.0176
     26 C         138.3882  145.9707  155.0676 C.ar    1  UNL1        0.0799
     27 N         139.1795  147.0934  155.6705 N.ar    1  UNL1       -0.3038
     28 C         140.1063  146.5092  156.6951 C.ar    1  UNL1        0.0772
     29 C         139.0642  148.5453  155.3119 C.ar    1  UNL1        0.0640
     30 C         139.6287  149.0446  154.0150 C.ar    1  UNL1        0.0175
     31 C         139.5134  150.4965  153.6563 C.ar    1  UNL1        0.0053
     32 C         138.8337  151.4491  154.5945 C.ar    1  UNL1        0.0715
     33 C         138.2692  150.9499  155.8915 C.ar    1  UNL1        0.0053
     34 C         138.3844  149.4980  156.2501 C.ar    1  UNL1        0.0175
     35 C         138.7184  152.9010  154.2358 C.3     1  UNL1        0.4186
     36 F         138.6031  154.3530  153.8773 F       1  UNL1       -0.1659
     37 F         138.7502  152.5438  152.7794 F       1  UNL1       -0.1659
     38 F         138.6867  153.2584  155.6924 F       1  UNL1       -0.1659
@<TRIPOS>BOND
     1    14    15    1
     2    15    16    1
     3    15    13    1
     4    13    17    1
     5    17    18    1
     6    18    19   ar
     7    19    20   ar
     8    20    21   ar
     9    21    22   ar
    10    13     7    1
    11     7     8   am
    12     8     9    2
    13     8    10   am
    14    10     1    1
    15     1     2    1
    16     2     3    1
    17     3     4    1
    18     4    23    1
    19    23    24    1
    20    24    25   ar
    21    25    26   ar
    22    26    27   ar
    23    27    29    1
    24    29    30   ar
    25    30    31   ar
    26    31    32   ar
    27    32    35    1
    28    35    36    1
    29    35    37    1
    30    35    38    1
    31    32    33   ar
    32    33    34   ar
    33    27    28   ar
    34     4     5    1
    35     5     6    1
    36    22    18   ar
    37     6     1    1
    38    28    24   ar
    39    34    29   ar
    40     7    11    1
    41    10    12    1
@<TRIPOS>MOLECULE
*****
 38 41 0 0 0
SMALL
GASTEIGER

@<TRIPOS>ATOM
      1 C         138.1242  139.8746  159.6857 C.3     1  UNL1        0.0758
      2 C         139.1610  138.7907  159.6897 C.3     1  UNL1        0.0370
      3 C         139.9367  138.4902  158.4414 C.3     1  UNL1        0.0741
      4 N         139.6755  139.2737  157.1893 N.3     1  UNL1       -0.2688
      5 C         138.6387  140.3576  157.1853 C.3     1  UNL1        0.0741
      6 C         137.8630  140.6581  158.4335 C.3     1  UNL1        0.0370
      7 N         137.2645  141.0814  163.3674 N.am    1  UNL1       -0.2887
      8 C         138.0401  140.7809  162.1192 C.2     1  UNL1        0.3007
      9 O         139.5074  141.0861  162.0562 O.2     1  UNL1       -0.2528
     10 N         137.3486  140.1752  160.9340 N.am    1  UNL1       -0.2905
     11 H         136.3014  140.8811  163.4088 H       1  UNL1        0.1510
     12 H         136.3855  139.9748  160.9753 H       1  UNL1        0.1509
     13 C         137.9560  141.6871  164.5526 C.3     1  UNL1        0.0956
     14 C         139.8365  141.3206  166.3076 C.3     1  UNL1        0.0018
     15 C         138.6506  140.8050  165.5473 C.3     1  UNL1        0.0200
     16 C         138.1594  139.4072  165.7817 C.3     1  UNL1        0.0018
     17 C         137.9530  143.1750  164.7432 C.3     1  UNL1        0.1271
     18 N         138.8860  144.0354  163.9437 N.ar    1  UNL1       -0.3061
     19 C         140.3227  144.3175  164.2696 C.ar    1  UNL1        0.0981
     20 C         140.8707  145.2212  163.2052 C.ar    1  UNL1        0.1193
     21 N         139.7726  145.4977  162.2214 N.ar    1  UNL1       -0.2223
     22 C         138.5460  144.7648  162.6778 C.ar    1  UNL1        0.1786
     23 C         140.4512  138.9732  155.9410 C.3     1  UNL1        0.1007
     24 C         140.8120  137.5566  155.6050 C.ar    1  UNL1        0.0129
     25 C         140.4424  136.8272  154.3474 C.ar    1  UNL1        0.0176
     26 C         141.0077  135.4404  154.4327 C.ar    1  UNL1        0.0799
     27 N         141.7267  135.3127  155.7431 N.ar    1  UNL1       -0.3038
     28 C         141.6057  136.6206  156.4675 C.ar    1  UNL1        0.0772
     29 C         142.4412  134.0916  156.2414 C.ar    1  UNL1        0.0640
     30 C         141.9700  132.7276  155.8321 C.ar    1  UNL1        0.0175
     31 C         142.6845  131.5065  156.3304 C.ar    1  UNL1        0.0053
     32 C         143.8701  131.6493  157.2380 C.ar    1  UNL1        0.0715
     33 C         144.3413  133.0132  157.6473 C.ar    1  UNL1        0.0053
     34 C         143.6268  134.2344  157.1490 C.ar    1  UNL1        0.0175
     35 C         144.5845  130.4281  157.7363 C.3     1  UNL1        0.4186
     36 F         145.2990  129.2069  158.2346 F       1  UNL1       -0.1659
     37 F         145.6286  131.2981  158.3712 F       1  UNL1       -0.1659
     38 F         143.5404  129.5581  157.1013 F       1  UNL1       -0.1659
@<TRIPOS>BOND
     1    14    15    1
     2    15    16    1
     3    15    13    1
     4    13    17    1
     5    17    18    1
     6    18    19   ar
     7    19    20   ar
     8    20    21   ar
     9    21    22   ar
    10    13     7    1
    11     7     8   am
    12     8     9    2
    13     8    10   am
    14    10     1    1
    15     1     2    1
    16     2     3    1
    17     3     4    1
    18     4    23    1
    19    23    24    1
    20    24    25   ar
    21    25    26   ar
    22    26    27   ar
    23    27    29    1
    24    29    30   ar
    25    30    31   ar
    26    31    32   ar
    27    32    35    1
    28    35    36    1
    29    35    37    1
    30    35    38    1
    31    32    33   ar
    32    33    34   ar
    33    27    28   ar
    34     4     5    1
    35     5     6    1
    36    22    18   ar
    37     6     1    1
    38    28    24   ar
    39    34    29   ar
    40     7    11    1
    41    10    12    1
@<TRIPOS>MOLECULE
*****
 38 41 0 0 0
SMALL
GASTEIGER

@<TRIPOS>ATOM
      1 C         142.5647  138.6417  162.3118 C.3     1  UNL1        0.0758
      2 C         143.7263  139.2053  161.5483 C.3     1  UNL1        0.0370
      3 C         143.7121  139.1989  160.0485 C.3     1  UNL1        0.0741
      4 N         142.5362  138.6288  159.3120 N.3     1  UNL1       -0.2688
      5 C         141.3746  138.0652  160.0754 C.3     1  UNL1        0.0741
      6 C         141.3888  138.0716  161.5753 C.3     1  UNL1        0.0370
      7 N         141.6619  139.5561  166.0667 N.am    1  UNL1       -0.2887
      8 C         141.6477  139.5497  164.5667 C.2     1  UNL1        0.3007
      9 O         140.7024  140.4449  163.8218 O.2     1  UNL1       -0.2528
     10 N         142.5789  138.6481  163.8117 N.am    1  UNL1       -0.2905
     11 H         142.2824  138.9685  166.5556 H       1  UNL1        0.1510
     12 H         143.1993  138.0605  164.3007 H       1  UNL1        0.1509
     13 C         140.7308  140.4577  166.8217 C.3     1  UNL1        0.0956
     14 C         139.1637  139.9634  168.8342 C.3     1  UNL1        0.0018
     15 C         139.4383  139.9196  167.3601 C.3     1  UNL1        0.0200
     16 C         138.4203  139.3379  166.4246 C.3     1  UNL1        0.0018
     17 C         141.0921  141.8973  167.0383 C.3     1  UNL1        0.1271
     18 N         141.9520  142.2876  168.2037 N.ar    1  UNL1       -0.3061
     19 C         141.4634  142.7036  169.5595 C.ar    1  UNL1        0.0981
     20 C         142.6608  143.0036  170.4118 C.ar    1  UNL1        0.1193
     21 N         143.8894  142.7729  169.5826 N.ar    1  UNL1       -0.2223
     22 C         143.4513  142.3304  168.2180 C.ar    1  UNL1        0.1786
     23 C         142.5220  138.6224  157.8120 C.3     1  UNL1        0.1007
     24 C         142.3206  137.3349  157.0694 C.ar    1  UNL1        0.0129
     25 C         141.1797  137.0171  156.1489 C.ar    1  UNL1        0.0176
     26 C         141.3787  135.6249  155.6275 C.ar    1  UNL1        0.0799
     27 N         142.6427  135.0821  156.2257 N.ar    1  UNL1       -0.3038
     28 C         143.2248  136.1389  157.1168 C.ar    1  UNL1        0.0772
     29 C         143.2226  133.7214  155.9764 C.ar    1  UNL1        0.0640
     30 C         142.7351  132.8984  154.8211 C.ar    1  UNL1        0.0175
     31 C         143.3151  131.5377  154.5718 C.ar    1  UNL1        0.0053
     32 C         144.3826  131.0000  155.4780 C.ar    1  UNL1        0.0715
     33 C         144.8701  131.8229  156.6334 C.ar    1  UNL1        0.0053
     34 C         144.2902  133.1836  156.8826 C.ar    1  UNL1        0.0175
     35 C         144.9625  129.6393  155.2287 C.3     1  UNL1        0.4186
     36 F         145.5425  128.2786  154.9796 F       1  UNL1       -0.1659
     37 F         144.9957  129.9232  153.7562 F       1  UNL1       -0.1659
     38 F         144.9293  129.3554  156.7013 F       1  UNL1       -0.1659
@<TRIPOS>BOND
     1    14    15    1
     2    15    16    1
     3    15    13    1
     4    13    17    1
     5    17    18    1
     6    18    19   ar
     7    19    20   ar
     8    20    21   ar
     9    21    22   ar
    10    13     7    1
    11     7     8   am
    12     8     9    2
    13     8    10   am
    14    10     1    1
    15     1     2    1
    16     2     3    1
    17     3     4    1
    18     4    23    1
    19    23    24    1
    20    24    25   ar
    21    25    26   ar
    22    26    27   ar
    23    27    29    1
    24    29    30   ar
    25    30    31   ar
    26    31    32   ar
    27    32    35    1
    28    35    36    1
    29    35    37    1
    30    35    38    1
    31    32    33   ar
    32    33    34   ar
    33    27    28   ar
    34     4     5    1
    35     5     6    1
    36    22    18   ar
    37     6     1    1
    38    28    24   ar
    39    34    29   ar
    40     7    11    1
    41    10    12    1
@<TRIPOS>MOLECULE
*****
 38 41 0 0 0
SMALL
GASTEIGER

@<TRIPOS>ATOM
      1 C         138.9943  141.9430  158.4533 C.3     1  UNL1        0.0758
      2 C         138.7255  140.4830  158.2393 C.3     1  UNL1        0.0370
      3 C         139.5511  139.7043  157.2585 C.3     1  UNL1        0.0741
      4 N         140.6456  140.3857  156.4918 N.3     1  UNL1       -0.2688
      5 C         140.9144  141.8457  156.7059 C.3     1  UNL1        0.0741
      6 C         140.0888  142.6244  157.6866 C.3     1  UNL1        0.0370
      7 N         137.6942  143.4813  161.8730 N.am    1  UNL1       -0.2887
      8 C         138.5199  142.7025  160.8922 C.2     1  UNL1        0.3007
      9 O         139.6968  141.9044  161.3697 O.2     1  UNL1       -0.2528
     10 N         138.1686  142.7218  159.4341 N.am    1  UNL1       -0.2905
     11 H         136.9218  144.0051  161.5597 H       1  UNL1        0.1510
     12 H         137.3962  143.2456  159.1208 H       1  UNL1        0.1509
     13 C         138.0455  143.4620  163.3311 C.3     1  UNL1        0.0956
     14 C         138.8668  144.8631  165.3590 C.3     1  UNL1        0.0018
     15 C         138.9425  144.5208  163.9005 C.3     1  UNL1        0.0200
     16 C         139.9152  145.2373  163.0115 C.3     1  UNL1        0.0018
     17 C         137.4998  142.3838  164.2199 C.3     1  UNL1        0.1271
     18 N         138.2732  141.1144  164.4207 N.ar    1  UNL1       -0.3061
     19 C         139.2746  140.8546  165.5068 C.ar    1  UNL1        0.0981
     20 C         139.8014  139.4616  165.3281 C.ar    1  UNL1        0.1193
     21 N         139.1255  138.8604  164.1314 N.ar    1  UNL1       -0.2223
     22 C         138.1811  139.8819  163.5707 C.ar    1  UNL1        0.1786
     23 C         141.4713  139.6069  155.5110 C.3     1  UNL1        0.1007
     24 C         141.3782  138.1103  155.4740 C.ar    1  UNL1        0.0129
     25 C         140.3290  137.3095  154.7612 C.ar    1  UNL1        0.0176
     26 C         140.6204  135.8560  154.9899 C.ar    1  UNL1        0.0799
     27 N         141.8496  135.7584  155.8440 N.ar    1  UNL1       -0.3038
     28 C         142.3180  137.1516  156.1432 C.ar    1  UNL1        0.0772
     29 C         142.4969  134.4902  156.3160 C.ar    1  UNL1        0.0640
     30 C         143.6915  134.5496  157.2210 C.ar    1  UNL1        0.0175
     31 C         144.3388  133.2815  157.6930 C.ar    1  UNL1        0.0053
     32 C         143.7913  131.9538  157.2601 C.ar    1  UNL1        0.0715
     33 C         142.5966  131.8943  156.3550 C.ar    1  UNL1        0.0053
     34 C         141.9494  133.1625  155.8830 C.ar    1  UNL1        0.0175
     35 C         144.4385  130.6857  157.7321 C.3     1  UNL1        0.4186
     36 F         145.0858  129.4175  158.2042 F       1  UNL1       -0.1659
     37 F         143.2846  129.8951  157.1904 F       1  UNL1       -0.1659
     38 F         145.5926  131.4762  158.2738 F       1  UNL1       -0.1659
@<TRIPOS>BOND
     1    14    15    1
     2    15    16    1
     3    15    13    1
     4    13    17    1
     5    17    18    1
     6    18    19   ar
     7    19    20   ar
     8    20    21   ar
     9    21    22   ar
    10    13     7    1
    11     7     8   am
    12     8     9    2
    13     8    10   am
    14    10     1    1
    15     1     2    1
    16     2     3    1
    17     3     4    1
    18     4    23    1
    19    23    24    1
    20    24    25   ar
    21    25    26   ar
    22    26    27   ar
    23    27    29    1
    24    29    30   ar
    25    30    31   ar
    26    31    32   ar
    27    32    35    1
    28    35    36    1
    29    35    37    1
    30    35    38    1
    31    32    33   ar
    32    33    34   ar
    33    27    28   ar
    34     4     5    1
    35     5     6    1
    36    22    18   ar
    37     6     1    1
    38    28    24   ar
    39    34    29   ar
    40     7    11    1
    41    10    12    1
@<TRIPOS>MOLECULE
*****
 38 41 0 0 0
SMALL
GASTEIGER

@<TRIPOS>ATOM
      1 C         138.6009  140.7681  158.8292 C.3     1  UNL1        0.0758
      2 C         140.0763  140.7398  158.5599 C.3     1  UNL1        0.0370
      3 C         140.9667  139.8326  159.3563 C.3     1  UNL1        0.0741
      4 N         140.3817  138.9538  160.4218 N.3     1  UNL1       -0.2688
      5 C         138.9064  138.9820  160.6911 C.3     1  UNL1        0.0741
      6 C         138.0160  139.8892  159.8947 C.3     1  UNL1        0.0370
      7 N         136.1813  142.0866  155.9730 N.am    1  UNL1       -0.2887
      8 C         137.0718  141.1794  156.7694 C.2     1  UNL1        0.3007
      9 O         137.3235  139.7764  156.3023 O.2     1  UNL1       -0.2528
     10 N         137.7105  141.6753  158.0328 N.am    1  UNL1       -0.2905
     11 H         136.0161  143.0075  156.2796 H       1  UNL1        0.1510
     12 H         137.5452  142.5961  158.3394 H       1  UNL1        0.1509
     13 C         135.5426  141.5908  154.7097 C.3     1  UNL1        0.0956
     14 C         137.6398  142.0199  153.2373 C.3     1  UNL1        0.0018
     15 C         136.3952  141.2346  153.5281 C.3     1  UNL1        0.0200
     16 C         136.0033  140.0932  152.6372 C.3     1  UNL1        0.0018
     17 C         134.0514  141.4512  154.6279 C.3     1  UNL1        0.1271
     18 N         133.3282  140.5552  155.5892 N.ar    1  UNL1       -0.3061
     19 C         133.8523  139.2726  156.1638 C.ar    1  UNL1        0.0981
     20 C         132.8019  138.7092  157.0744 C.ar    1  UNL1        0.1193
     21 N         131.6285  139.6437  157.0626 N.ar    1  UNL1       -0.2223
     22 C         131.9538  140.7846  156.1447 C.ar    1  UNL1        0.1786
     23 C         141.2722  138.0466  161.2182 C.3     1  UNL1        0.1007
     24 C         142.1631  138.6152  162.2825 C.ar    1  UNL1        0.0129
     25 C         143.6631  138.6113  162.2715 C.ar    1  UNL1        0.0176
     26 C         144.1376  139.2813  163.5269 C.ar    1  UNL1        0.0799
     27 N         142.9308  139.6994  164.3138 N.ar    1  UNL1       -0.3038
     28 C         141.7106  139.2877  163.5447 C.ar    1  UNL1        0.0772
     29 C         142.9423  140.4051  165.6373 C.ar    1  UNL1        0.0640
     30 C         143.3329  141.8513  165.7127 C.ar    1  UNL1        0.0175
     31 C         143.3444  142.5571  167.0363 C.ar    1  UNL1        0.0053
     32 C         142.9654  141.8166  168.2844 C.ar    1  UNL1        0.0715
     33 C         142.5748  140.3703  168.2090 C.ar    1  UNL1        0.0053
     34 C         142.5633  139.6646  166.8855 C.ar    1  UNL1        0.0175
     35 C         142.9769  142.5224  169.6079 C.3     1  UNL1        0.4186
     36 F         142.9885  143.2281  170.9315 F       1  UNL1       -0.1659
     37 F         141.7712  143.3140  169.1962 F       1  UNL1       -0.1659
     38 F         144.1827  141.7306  170.0196 F       1  UNL1       -0.1659
@<TRIPOS>BOND
     1    14    15    1
     2    15    16    1
     3    15    13    1
     4    13    17    1
     5    17    18    1
     6    18    19   ar
     7    19    20   ar
     8    20    21   ar
     9    21    22   ar
    10    13     7    1
    11     7     8   am
    12     8     9    2
    13     8    10   am
    14    10     1    1
    15     1     2    1
    16     2     3    1
    17     3     4    1
    18     4    23    1
    19    23    24    1
    20    24    25   ar
    21    25    26   ar
    22    26    27   ar
    23    27    29    1
    24    29    30   ar
    25    30    31   ar
    26    31    32   ar
    27    32    35    1
    28    35    36    1
    29    35    37    1
    30    35    38    1
    31    32    33   ar
    32    33    34   ar
    33    27    28   ar
    34     4     5    1
    35     5     6    1
    36    22    18   ar
    37     6     1    1
    38    28    24   ar
    39    34    29   ar
    40     7    11    1
    41    10    12    1
@<TRIPOS>MOLECULE
*****
 38 41 0 0 0
SMALL
GASTEIGER

@<TRIPOS>ATOM
      1 C         140.4773  145.0427  160.0226 C.3     1  UNL1        0.0758
      2 C         139.9812  145.9530  161.1067 C.3     1  UNL1        0.0370
      3 C         139.0686  145.4224  162.1723 C.3     1  UNL1        0.0741
      4 N         138.6521  143.9815  162.1539 N.3     1  UNL1       -0.2688
      5 C         139.1482  143.0712  161.0698 C.3     1  UNL1        0.0741
      6 C         140.0607  143.6018  160.0042 C.3     1  UNL1        0.0370
      7 N         142.0490  145.7684  156.4514 N.am    1  UNL1       -0.2887
      8 C         141.1363  145.2379  157.5171 C.2     1  UNL1        0.3007
      9 O         139.9702  144.3718  157.1429 O.2     1  UNL1       -0.2528
     10 N         141.3899  145.5733  158.9569 N.am    1  UNL1       -0.2905
     11 H         142.8144  146.3369  156.6970 H       1  UNL1        0.1510
     12 H         142.1553  146.1417  159.2025 H       1  UNL1        0.1509
     13 C         141.7954  145.4330  155.0116 C.3     1  UNL1        0.0956
     14 C         143.5969  145.2842  153.1454 C.3     1  UNL1        0.0018
     15 C         142.8026  144.6338  154.2391 C.3     1  UNL1        0.0200
     16 C         143.0157  143.1842  154.5604 C.3     1  UNL1        0.0018
     17 C         140.5346  145.8967  154.3442 C.3     1  UNL1        0.1271
     18 N         139.9883  147.2621  154.6394 N.ar    1  UNL1       -0.3061
     19 C         139.0282  147.6088  155.7385 C.ar    1  UNL1        0.0981
     20 C         138.7526  149.0815  155.6658 C.ar    1  UNL1        0.1193
     21 N         139.5423  149.6449  154.5216 N.ar    1  UNL1       -0.2223
     22 C         140.3060  148.5204  153.8873 C.ar    1  UNL1        0.1786
     23 C         137.7395  143.4510  163.2196 C.3     1  UNL1        0.1007
     24 C         138.1773  142.3014  164.0779 C.ar    1  UNL1        0.0129
     25 C         137.6847  140.8882  163.9771 C.ar    1  UNL1        0.0176
     26 C         138.3876  140.0765  165.0245 C.ar    1  UNL1        0.0799
     27 N         139.3146  140.9881  165.7728 N.ar    1  UNL1       -0.3038
     28 C         139.1846  142.3631  165.1877 C.ar    1  UNL1        0.0772
     29 C         140.2136  140.5938  166.9069 C.ar    1  UNL1        0.0640
     30 C         139.6399  140.3628  168.2733 C.ar    1  UNL1        0.0175
     31 C         140.5390  139.9685  169.4074 C.ar    1  UNL1        0.0053
     32 C         142.0118  139.8053  169.1751 C.ar    1  UNL1        0.0715
     33 C         142.5856  140.0364  167.8086 C.ar    1  UNL1        0.0053
     34 C         141.6865  140.4307  166.6745 C.ar    1  UNL1        0.0175
     35 C         142.9108  139.4111  170.3092 C.3     1  UNL1        0.4186
     36 F         143.8099  139.0168  171.4433 F       1  UNL1       -0.1659
     37 F         142.8925  140.8233  170.8146 F       1  UNL1       -0.1659
     38 F         142.9291  137.9989  169.8038 F       1  UNL1       -0.1659
@<TRIPOS>BOND
     1    14    15    1
     2    15    16    1
     3    15    13    1
     4    13    17    1
     5    17    18    1
     6    18    19   ar
     7    19    20   ar
     8    20    21   ar
     9    21    22   ar
    10    13     7    1
    11     7     8   am
    12     8     9    2
    13     8    10   am
    14    10     1    1
    15     1     2    1
    16     2     3    1
    17     3     4    1
    18     4    23    1
    19    23    24    1
    20    24    25   ar
    21    25    26   ar
    22    26    27   ar
    23    27    29    1
    24    29    30   ar
    25    30    31   ar
    26    31    32   ar
    27    32    35    1
    28    35    36    1
    29    35    37    1
    30    35    38    1
    31    32    33   ar
    32    33    34   ar
    33    27    28   ar
    34     4     5    1
    35     5     6    1
    36    22    18   ar
    37     6     1    1
    38    28    24   ar
    39    34    29   ar
    40     7    11    1
    41    10    12    1
@<TRIPOS>MOLECULE
*****
 38 41 0 0 0
SMALL
GASTEIGER

@<TRIPOS>ATOM
      1 C         141.2581  138.9938  161.5563 C.3     1  UNL1        0.0758
      2 C         142.7268  139.0934  161.2686 C.3     1  UNL1        0.0370
      3 C         143.2253  138.9674  159.8595 C.3     1  UNL1        0.0741
      4 N         142.2550  138.7418  158.7381 N.3     1  UNL1       -0.2688
      5 C         140.7863  138.6422  159.0257 C.3     1  UNL1        0.0741
      6 C         140.2878  138.7682  160.4348 C.3     1  UNL1        0.0370
      7 N         140.1239  140.6008  165.0033 N.am    1  UNL1       -0.2887
      8 C         140.6224  140.4747  163.5941 C.2     1  UNL1        0.3007
      9 O         140.9839  141.7037  162.8137 O.2     1  UNL1       -0.2528
     10 N         140.7595  139.1198  162.9654 N.am    1  UNL1       -0.2905
     11 H         139.8866  139.7942  165.5155 H       1  UNL1        0.1510
     12 H         140.5223  138.3132  163.4776 H       1  UNL1        0.1509
     13 C         139.9868  141.9557  165.6320 C.3     1  UNL1        0.0956
     14 C         139.1490  144.3928  165.3022 C.3     1  UNL1        0.0018
     15 C         138.9521  142.9163  165.1254 C.3     1  UNL1        0.0200
     16 C         137.7204  142.4004  164.4421 C.3     1  UNL1        0.0018
     17 C         140.8844  142.3500  166.7672 C.3     1  UNL1        0.1271
     18 N         140.4034  142.2237  168.1824 N.ar    1  UNL1       -0.3061
     19 C         140.4358  143.3023  169.2242 C.ar    1  UNL1        0.0981
     20 C         139.8580  142.7417  170.4899 C.ar    1  UNL1        0.1193
     21 N         139.4685  141.3166  170.2303 N.ar    1  UNL1       -0.2223
     22 C         139.8056  140.9964  168.8041 C.ar    1  UNL1        0.1786
     23 C         142.7536  138.6158  157.3289 C.3     1  UNL1        0.1007
     24 C         142.9859  137.2585  156.7341 C.ar    1  UNL1        0.0129
     25 C         143.1017  136.9448  155.2719 C.ar    1  UNL1        0.0176
     26 C         143.3306  135.4691  155.1311 C.ar    1  UNL1        0.0799
     27 N         143.3563  134.8707  156.5064 N.ar    1  UNL1       -0.3038
     28 C         143.1433  135.9767  157.4971 C.ar    1  UNL1        0.0772
     29 C         143.5594  133.4210  156.8336 C.ar    1  UNL1        0.0640
     30 C         144.7325  132.9973  157.6668 C.ar    1  UNL1        0.0175
     31 C         144.9356  131.5476  157.9939 C.ar    1  UNL1        0.0053
     32 C         143.9656  130.5215  157.4878 C.ar    1  UNL1        0.0715
     33 C         142.7925  130.9451  156.6546 C.ar    1  UNL1        0.0053
     34 C         142.5894  132.3949  156.3275 C.ar    1  UNL1        0.0175
     35 C         144.1687  129.0718  157.8150 C.3     1  UNL1        0.4186
     36 F         144.3718  127.6221  158.1422 F       1  UNL1       -0.1659
     37 F         144.9887  128.9058  156.5700 F       1  UNL1       -0.1659
     38 F         143.3487  129.2378  159.0600 F       1  UNL1       -0.1659
@<TRIPOS>BOND
     1    14    15    1
     2    15    16    1
     3    15    13    1
     4    13    17    1
     5    17    18    1
     6    18    19   ar
     7    19    20   ar
     8    20    21   ar
     9    21    22   ar
    10    13     7    1
    11     7     8   am
    12     8     9    2
    13     8    10   am
    14    10     1    1
    15     1     2    1
    16     2     3    1
    17     3     4    1
    18     4    23    1
    19    23    24    1
    20    24    25   ar
    21    25    26   ar
    22    26    27   ar
    23    27    29    1
    24    29    30   ar
    25    30    31   ar
    26    31    32   ar
    27    32    35    1
    28    35    36    1
    29    35    37    1
    30    35    38    1
    31    32    33   ar
    32    33    34   ar
    33    27    28   ar
    34     4     5    1
    35     5     6    1
    36    22    18   ar
    37     6     1    1
    38    28    24   ar
    39    34    29   ar
    40     7    11    1
    41    10    12    1
@<TRIPOS>MOLECULE
*****
 38 41 0 0 0
SMALL
GASTEIGER

@<TRIPOS>ATOM
      1 C         142.8889  141.7838  159.0352 C.3     1  UNL1        0.0758
      2 C         141.8207  142.0154  158.0080 C.3     1  UNL1        0.0370
      3 C         141.3589  140.8841  157.1380 C.3     1  UNL1        0.0741
      4 N         141.9654  139.5212  157.2953 N.3     1  UNL1       -0.2688
      5 C         143.0336  139.2896  158.3225 C.3     1  UNL1        0.0741
      6 C         143.4954  140.4209  159.1924 C.3     1  UNL1        0.0370
      7 N         143.2459  144.2118  162.1542 N.am    1  UNL1       -0.2887
      8 C         142.7840  143.0805  161.2841 C.2     1  UNL1        0.3007
      9 O         141.7556  142.1145  161.7931 O.2     1  UNL1       -0.2528
     10 N         143.3507  142.9152  159.9052 N.am    1  UNL1       -0.2905
     11 H         143.9209  144.8458  161.8201 H       1  UNL1        0.1510
     12 H         144.0257  143.5492  159.5711 H       1  UNL1        0.1509
     13 C         142.6792  144.3771  163.5331 C.3     1  UNL1        0.0956
     14 C         144.6315  143.6629  165.0915 C.3     1  UNL1        0.0018
     15 C         143.1993  143.5389  164.6631 C.3     1  UNL1        0.0200
     16 C         142.2872  142.5767  165.3647 C.3     1  UNL1        0.0018
     17 C         141.5925  145.3806  163.7821 C.3     1  UNL1        0.1271
     18 N         140.1596  145.0108  163.5369 N.ar    1  UNL1       -0.3061
     19 C         139.1899  144.5097  164.5657 C.ar    1  UNL1        0.0981
     20 C         137.8759  144.2664  163.8845 C.ar    1  UNL1        0.1193
     21 N         138.0334  144.6172  162.4346 N.ar    1  UNL1       -0.2223
     22 C         139.4448  145.0773  162.2198 C.ar    1  UNL1        0.1786
     23 C         141.5036  138.3899  156.4252 C.3     1  UNL1        0.1007
     24 C         142.3928  137.2023  156.2044 C.ar    1  UNL1        0.0129
     25 C         143.6170  137.1663  155.3384 C.ar    1  UNL1        0.0176
     26 C         144.1948  135.7839  155.4097 C.ar    1  UNL1        0.0799
     27 N         143.3277  134.9654  156.3197 N.ar    1  UNL1       -0.3038
     28 C         142.2140  135.8420  156.8109 C.ar    1  UNL1        0.0772
     29 C         143.5374  133.5235  156.6760 C.ar    1  UNL1        0.0640
     30 C         142.6318  132.4713  156.1082 C.ar    1  UNL1        0.0175
     31 C         142.8415  131.0294  156.4645 C.ar    1  UNL1        0.0053
     32 C         143.9569  130.6398  157.3885 C.ar    1  UNL1        0.0715
     33 C         144.8626  131.6920  157.9564 C.ar    1  UNL1        0.0053
     34 C         144.6529  133.1339  157.6001 C.ar    1  UNL1        0.0175
     35 C         144.1666  129.1979  157.7448 C.3     1  UNL1        0.4186
     36 F         144.3764  127.7559  158.1010 F       1  UNL1       -0.1659
     37 F         143.3319  129.3811  158.9776 F       1  UNL1       -0.1659
     38 F         145.0014  129.0146  156.5120 F       1  UNL1       -0.1659
@<TRIPOS>BOND
     1    14    15    1
     2    15    16    1
     3    15    13    1
     4    13    17    1
     5    17    18    1
     6    18    19   ar
     7    19    20   ar
     8    20    21   ar
     9    21    22   ar
    10    13     7    1
    11     7     8   am
    12     8     9    2
    13     8    10   am
    14    10     1    1
    15     1     2    1
    16     2     3    1
    17     3     4    1
    18     4    23    1
    19    23    24    1
    20    24    25   ar
    21    25    26   ar
    22    26    27   ar
    23    27    29    1
    24    29    30   ar
    25    30    31   ar
    26    31    32   ar
    27    32    35    1
    28    35    36    1
    29    35    37    1
    30    35    38    1
    31    32    33   ar
    32    33    34   ar
    33    27    28   ar
    34     4     5    1
    35     5     6    1
    36    22    18   ar
    37     6     1    1
    38    28    24   ar
    39    34    29   ar
    40     7    11    1
    41    10    12    1
@<TRIPOS>MOLECULE
*****
 38 41 0 0 0
SMALL
GASTEIGER

@<TRIPOS>ATOM
      1 C         141.8661  139.2267  160.8575 C.3     1  UNL1        0.0758
      2 C         140.5482  138.8297  160.2615 C.3     1  UNL1        0.0370
      3 C         140.4685  138.4263  158.8190 C.3     1  UNL1        0.0741
      4 N         141.7068  138.4199  157.9725 N.3     1  UNL1       -0.2688
      5 C         143.0248  138.8169  158.5685 C.3     1  UNL1        0.0741
      6 C         143.1044  139.2203  160.0110 C.3     1  UNL1        0.0370
      7 N         142.0800  141.4860  164.1134 N.am    1  UNL1       -0.2887
      8 C         142.0003  141.0825  162.6708 C.2     1  UNL1        0.3007
      9 O         141.9750  142.1316  161.5990 O.2     1  UNL1       -0.2528
     10 N         141.9459  139.6301  162.3001 N.am    1  UNL1       -0.2905
     11 H         142.0966  140.7974  164.8168 H       1  UNL1        0.1510
     12 H         141.9625  138.9416  163.0036 H       1  UNL1        0.1509
     13 C         142.1345  142.9384  164.4841 C.3     1  UNL1        0.0956
     14 C         144.7157  142.9912  164.7749 C.3     1  UNL1        0.0018
     15 C         143.4348  143.6825  164.4121 C.3     1  UNL1        0.0200
     16 C         143.4545  145.1180  163.9774 C.3     1  UNL1        0.0018
     17 C         140.8885  143.6467  164.9267 C.3     1  UNL1        0.1271
     18 N         139.7480  143.8271  163.9692 N.ar    1  UNL1       -0.3061
     19 C         138.6872  142.8127  163.6604 C.ar    1  UNL1        0.0981
     20 C         137.7517  143.4123  162.6528 C.ar    1  UNL1        0.1193
     21 N         138.2344  144.7974  162.3389 N.ar    1  UNL1       -0.2223
     22 C         139.4682  145.0538  163.1525 C.ar    1  UNL1        0.1786
     23 C         141.6271  138.0165  156.5299 C.3     1  UNL1        0.1007
     24 C         141.6990  136.5669  156.1514 C.ar    1  UNL1        0.0129
     25 C         140.9563  135.9119  155.0248 C.ar    1  UNL1        0.0176
     26 C         141.3245  134.4579  155.0102 C.ar    1  UNL1        0.0799
     27 N         142.2948  134.2142  156.1279 N.ar    1  UNL1       -0.3038
     28 C         142.5262  135.5176  156.8332 C.ar    1  UNL1        0.0772
     29 C         142.9233  132.8981  156.4786 C.ar    1  UNL1        0.0640
     30 C         144.1793  132.8614  157.2977 C.ar    1  UNL1        0.0175
     31 C         144.8078  131.5454  157.6484 C.ar    1  UNL1        0.0053
     32 C         144.1803  130.2661  157.1801 C.ar    1  UNL1        0.0715
     33 C         142.9242  130.3027  156.3610 C.ar    1  UNL1        0.0053
     34 C         142.2957  131.6188  156.0103 C.ar    1  UNL1        0.0175
     35 C         144.8088  128.9501  157.5309 C.3     1  UNL1        0.4186
     36 F         145.4373  127.6340  157.8817 F       1  UNL1       -0.1659
     37 F         144.6426  128.4926  156.1120 F       1  UNL1       -0.1659
     38 F         144.9750  129.4076  158.9498 F       1  UNL1       -0.1659
@<TRIPOS>BOND
     1    14    15    1
     2    15    16    1
     3    15    13    1
     4    13    17    1
     5    17    18    1
     6    18    19   ar
     7    19    20   ar
     8    20    21   ar
     9    21    22   ar
    10    13     7    1
    11     7     8   am
    12     8     9    2
    13     8    10   am
    14    10     1    1
    15     1     2    1
    16     2     3    1
    17     3     4    1
    18     4    23    1
    19    23    24    1
    20    24    25   ar
    21    25    26   ar
    22    26    27   ar
    23    27    29    1
    24    29    30   ar
    25    30    31   ar
    26    31    32   ar
    27    32    35    1
    28    35    36    1
    29    35    37    1
    30    35    38    1
    31    32    33   ar
    32    33    34   ar
    33    27    28   ar
    34     4     5    1
    35     5     6    1
    36    22    18   ar
    37     6     1    1
    38    28    24   ar
    39    34    29   ar
    40     7    11    1
    41    10    12    1
