@<TRIPOS>MOLECULE
*****
 39 44 0 0 0
SMALL
GASTEIGER

@<TRIPOS>ATOM
      1 C         137.8040  142.9368  163.3008 C.3     1  UNL1        0.0932
      2 C         137.9150  142.6992  161.8239 C.3     1  UNL1        0.0286
      3 C         137.9477  141.2978  161.2900 C.3     1  UNL1        0.0193
      4 C         137.8693  140.1339  162.2331 C.3     1  UNL1        0.0700
      5 C         137.7583  140.3715  163.7100 C.3     1  UNL1        0.0193
      6 C         137.7256  141.7730  164.2438 C.3     1  UNL1        0.0286
      7 C         137.8477  140.8838  162.5725 C.3     1  UNL1        0.1562
      8 O         137.8182  142.1509  163.0553 O.3     1  UNL1       -0.3572
      9 N         137.9020  138.7326  161.6992 N.3     1  UNL1       -0.2926
     10 H         137.2918  138.7145  160.8821 H       1  UNL1        0.1236
     11 C         139.2054  138.1199  161.2799 C.3     1  UNL1        0.1152
     12 C         140.4252  138.2934  162.1353 C.ar    1  UNL1        0.0765
     13 C         140.6083  137.4482  163.3610 C.ar    1  UNL1        0.0193
     14 C         141.8282  137.6217  164.2164 C.ar    1  UNL1        0.0411
     15 C         142.8650  138.6405  163.8462 C.ar    1  UNL1        0.1708
     16 C         142.6820  139.4857  162.6206 C.ar    1  UNL1        0.1682
     17 N         141.4621  139.3122  161.7652 N.ar    1  UNL1       -0.2304
     18 N         143.7189  140.5044  162.2505 N.am    1  UNL1       -0.2639
     19 C         144.9388  140.6780  163.1058 C.2     1  UNL1        0.2718
     20 O         145.9757  141.6967  162.7357 O.2     1  UNL1       -0.2707
     21 C         145.1218  139.8327  164.3315 C.3     1  UNL1        0.2898
     22 O         144.0850  138.8140  164.7017 O.3     1  UNL1       -0.4628
     23 H         143.5988  141.0592  161.4460 H       1  UNL1        0.1565
     24 C         137.7713  144.3381  163.8346 C.3     1  UNL1        0.0320
     25 C         138.9103  144.8511  164.6651 C.3     1  UNL1        0.0327
     26 C         141.0006  141.9859  167.4348 C.ar    1  UNL1        0.2249
     27 C         142.4032  141.5447  167.1383 C.ar    1  UNL1        0.0593
     28 C         143.1091  142.0586  165.9186 C.ar    1  UNL1        0.0254
     29 C         142.4124  143.0136  164.9954 C.ar    1  UNL1        0.0990
     30 N         143.1183  143.5275  163.7757 N.ar    1  UNL1       -0.2400
     31 C         142.4215  144.4825  162.8525 C.ar    1  UNL1        0.1281
     32 C         141.0188  144.9238  163.1489 C.ar    1  UNL1        0.1566
     33 F         140.3221  145.8788  162.2257 F       1  UNL1       -0.2028
     34 C         140.3129  144.4099  164.3686 C.ar    1  UNL1        0.0261
     35 C         141.0097  143.4548  165.2919 C.ar    1  UNL1        0.1002
     36 N         140.3039  142.9410  166.5116 N.ar    1  UNL1       -0.2104
     37 O         140.2947  141.4721  168.6545 O.3     1  UNL1       -0.4602
     38 C         139.1619  139.6095  167.2412 C.3     1  UNL1        0.0512
     39 C         139.4814  140.2142  168.5762 C.3     1  UNL1        0.2072
@<TRIPOS>BOND
     1    38    39    1
     2    39    37    1
     3    37    26    1
     4    26    27   ar
     5    27    28   ar
     6    28    29   ar
     7    29    30   ar
     8    30    31   ar
     9    31    32   ar
    10    32    33    1
    11    32    34   ar
    12    34    25    1
    13    25    24    1
    14    24     1    1
    15     1     2    1
    16     2     3    1
    17     3     4    1
    18     4     9    1
    19     9    11    1
    20    11    12    1
    21    12    13   ar
    22    13    14   ar
    23    14    15   ar
    24    15    16   ar
    25    16    17   ar
    26    16    18    1
    27    18    19   am
    28    19    20    2
    29    19    21    1
    30    21    22    1
    31     4     5    1
    32     5     6    1
    33     4     7    1
    34     7     8    1
    35    34    35   ar
    36    35    36   ar
    37    36    26   ar
    38    35    29   ar
    39     6     1    1
    40     8     1    1
    41    17    12   ar
    42    22    15    1
    43     9    10    1
    44    18    23    1
@<TRIPOS>MOLECULE
*****
 39 44 0 0 0
SMALL
GASTEIGER

@<TRIPOS>ATOM
      1 C         142.0606  138.0155  164.1199 C.3     1  UNL1        0.0932
      2 C         142.9980  138.5467  165.1635 C.3     1  UNL1        0.0286
      3 C         144.1594  139.4063  164.7607 C.3     1  UNL1        0.0193
      4 C         144.3834  139.7347  163.3143 C.3     1  UNL1        0.0700
      5 C         143.4460  139.2035  162.2707 C.3     1  UNL1        0.0193
      6 C         142.2846  138.3439  162.6735 C.3     1  UNL1        0.0286
      7 C         143.7333  139.2598  163.4866 C.3     1  UNL1        0.1562
      8 O         142.6831  138.4826  163.8508 O.3     1  UNL1       -0.3572
      9 N         145.5449  140.5943  162.9116 N.3     1  UNL1       -0.2926
     10 H         145.5705  140.5956  161.8919 H       1  UNL1        0.1236
     11 C         145.6037  142.0281  163.3481 C.3     1  UNL1        0.1152
     12 C         144.3964  142.9064  163.2030 C.ar    1  UNL1        0.0765
     13 C         143.7422  143.4893  164.4206 C.ar    1  UNL1        0.0193
     14 C         142.5350  144.3675  164.2755 C.ar    1  UNL1        0.0411
     15 C         141.9818  144.6630  162.9129 C.ar    1  UNL1        0.1708
     16 C         142.6359  144.0802  161.6954 C.ar    1  UNL1        0.1682
     17 N         143.8432  143.2019  161.8404 N.ar    1  UNL1       -0.2304
     18 N         142.0827  144.3757  160.3328 N.am    1  UNL1       -0.2639
     19 C         140.8755  145.2539  160.1877 C.2     1  UNL1        0.2718
     20 O         140.3223  145.5494  158.8251 O.2     1  UNL1       -0.2707
     21 C         140.2213  145.8368  161.4053 C.3     1  UNL1        0.2898
     22 O         140.7745  145.5413  162.7679 O.3     1  UNL1       -0.4628
     23 H         142.5121  143.9931  159.5337 H       1  UNL1        0.1565
     24 C         140.8992  137.1560  164.5226 C.3     1  UNL1        0.0320
     25 C         139.6189  137.7908  164.9788 C.3     1  UNL1        0.0327
     26 C         140.3284  141.8206  166.8514 C.ar    1  UNL1        0.2249
     27 C         139.8238  143.0610  166.1755 C.ar    1  UNL1        0.0593
     28 C         139.0827  142.9581  164.8754 C.ar    1  UNL1        0.0254
     29 C         138.8462  141.6148  164.2512 C.ar    1  UNL1        0.0990
     30 N         138.1051  141.5119  162.9512 N.ar    1  UNL1       -0.2400
     31 C         137.8686  140.1687  162.3270 C.ar    1  UNL1        0.1281
     32 C         138.3732  138.9282  163.0029 C.ar    1  UNL1        0.1566
     33 F         138.1367  137.5850  162.3787 F       1  UNL1       -0.2028
     34 C         139.1143  139.0311  164.3029 C.ar    1  UNL1        0.0261
     35 C         139.3508  140.3745  164.9271 C.ar    1  UNL1        0.1002
     36 N         140.0919  140.4774  166.2272 N.ar    1  UNL1       -0.2104
     37 O         141.0695  141.9235  168.1514 O.3     1  UNL1       -0.4602
     38 C         140.4732  143.8247  169.8188 C.3     1  UNL1        0.0512
     39 C         140.3577  142.3933  169.3854 C.3     1  UNL1        0.2072
@<TRIPOS>BOND
     1    38    39    1
     2    39    37    1
     3    37    26    1
     4    26    27   ar
     5    27    28   ar
     6    28    29   ar
     7    29    30   ar
     8    30    31   ar
     9    31    32   ar
    10    32    33    1
    11    32    34   ar
    12    34    25    1
    13    25    24    1
    14    24     1    1
    15     1     2    1
    16     2     3    1
    17     3     4    1
    18     4     9    1
    19     9    11    1
    20    11    12    1
    21    12    13   ar
    22    13    14   ar
    23    14    15   ar
    24    15    16   ar
    25    16    17   ar
    26    16    18    1
    27    18    19   am
    28    19    20    2
    29    19    21    1
    30    21    22    1
    31     4     5    1
    32     5     6    1
    33     4     7    1
    34     7     8    1
    35    34    35   ar
    36    35    36   ar
    37    36    26   ar
    38    35    29   ar
    39     6     1    1
    40     8     1    1
    41    17    12   ar
    42    22    15    1
    43     9    10    1
    44    18    23    1
@<TRIPOS>MOLECULE
*****
 39 44 0 0 0
SMALL
GASTEIGER

@<TRIPOS>ATOM
      1 C         142.5836  144.4400  163.5180 C.3     1  UNL1        0.0932
      2 C         142.5296  144.2351  162.0330 C.3     1  UNL1        0.0286
      3 C         141.2089  144.0324  161.3514 C.3     1  UNL1        0.0193
      4 C         139.9421  144.0347  162.1547 C.3     1  UNL1        0.0700
      5 C         139.9961  144.2396  163.6397 C.3     1  UNL1        0.0193
      6 C         141.3169  144.4422  164.3213 C.3     1  UNL1        0.0286
      7 C         140.6422  144.1497  162.5726 C.3     1  UNL1        0.1562
      8 O         141.8364  144.3330  163.1890 O.3     1  UNL1       -0.3572
      9 N         138.6214  143.8320  161.4731 N.3     1  UNL1       -0.2926
     10 H         138.5765  144.5085  160.7110 H       1  UNL1        0.1236
     11 C         138.2777  142.4951  160.8861 C.3     1  UNL1        0.1152
     12 C         138.4767  141.2475  161.6947 C.ar    1  UNL1        0.0765
     13 C         139.0593  140.0230  161.0532 C.ar    1  UNL1        0.0193
     14 C         139.2583  138.7754  161.8617 C.ar    1  UNL1        0.0411
     15 C         138.8748  138.7521  163.3117 C.ar    1  UNL1        0.1708
     16 C         138.2923  139.9765  163.9531 C.ar    1  UNL1        0.1682
     17 N         138.0932  141.2242  163.1446 N.ar    1  UNL1       -0.2304
     18 N         137.9088  139.9533  165.4031 N.am    1  UNL1       -0.2639
     19 C         138.1079  138.7056  166.2116 C.2     1  UNL1        0.2718
     20 O         137.7244  138.6824  167.6616 O.2     1  UNL1       -0.2707
     21 C         138.6904  137.4811  165.5702 C.3     1  UNL1        0.2898
     22 O         139.0739  137.5044  164.1202 O.3     1  UNL1       -0.4628
     23 H         137.5265  140.7569  165.8241 H       1  UNL1        0.1565
     24 C         143.9043  144.6426  164.1996 C.3     1  UNL1        0.0320
     25 C         144.4979  143.5414  165.0273 C.3     1  UNL1        0.0327
     26 C         141.7922  141.1072  167.6737 C.ar    1  UNL1        0.2249
     27 C         141.5023  139.6750  167.3352 C.ar    1  UNL1        0.0593
     28 C         142.1144  139.0541  166.1146 C.ar    1  UNL1        0.0254
     29 C         143.0163  139.8654  165.2325 C.ar    1  UNL1        0.0990
     30 N         143.6284  139.2446  164.0119 N.ar    1  UNL1       -0.2400
     31 C         144.5303  140.0559  163.1298 C.ar    1  UNL1        0.1281
     32 C         144.8202  141.4882  163.4682 C.ar    1  UNL1        0.1566
     33 F         145.7221  142.2996  162.5861 F       1  UNL1       -0.2028
     34 C         144.2081  142.1091  164.6888 C.ar    1  UNL1        0.0261
     35 C         143.3062  141.2977  165.5710 C.ar    1  UNL1        0.1002
     36 N         142.6941  141.9186  166.7916 N.ar    1  UNL1       -0.2104
     37 O         141.1801  141.7281  168.8943 O.3     1  UNL1       -0.4602
     38 C         140.4568  143.9944  169.9385 C.3     1  UNL1        0.0512
     39 C         140.4512  143.0346  168.7859 C.3     1  UNL1        0.2072
@<TRIPOS>BOND
     1    38    39    1
     2    39    37    1
     3    37    26    1
     4    26    27   ar
     5    27    28   ar
     6    28    29   ar
     7    29    30   ar
     8    30    31   ar
     9    31    32   ar
    10    32    33    1
    11    32    34   ar
    12    34    25    1
    13    25    24    1
    14    24     1    1
    15     1     2    1
    16     2     3    1
    17     3     4    1
    18     4     9    1
    19     9    11    1
    20    11    12    1
    21    12    13   ar
    22    13    14   ar
    23    14    15   ar
    24    15    16   ar
    25    16    17   ar
    26    16    18    1
    27    18    19   am
    28    19    20    2
    29    19    21    1
    30    21    22    1
    31     4     5    1
    32     5     6    1
    33     4     7    1
    34     7     8    1
    35    34    35   ar
    36    35    36   ar
    37    36    26   ar
    38    35    29   ar
    39     6     1    1
    40     8     1    1
    41    17    12   ar
    42    22    15    1
    43     9    10    1
    44    18    23    1
@<TRIPOS>MOLECULE
*****
 39 44 0 0 0
SMALL
GASTEIGER

@<TRIPOS>ATOM
      1 C         141.9916  138.0080  164.6485 C.3     1  UNL1        0.0932
      2 C         140.5506  137.7599  164.9832 C.3     1  UNL1        0.0286
      3 C         139.5185  137.7524  163.8949 C.3     1  UNL1        0.0193
      4 C         139.9273  137.9929  162.4718 C.3     1  UNL1        0.0700
      5 C         141.3683  138.2410  162.1371 C.3     1  UNL1        0.0193
      6 C         142.4005  138.2486  163.2256 C.3     1  UNL1        0.0286
      7 C         140.5287  138.0065  163.0340 C.3     1  UNL1        0.1562
      8 O         141.4621  138.0134  164.0181 O.3     1  UNL1       -0.3572
      9 N         138.8951  137.9854  161.3834 N.3     1  UNL1       -0.2926
     10 H         138.4710  137.0577  161.3863 H       1  UNL1        0.1236
     11 C         137.7693  138.9762  161.4106 C.3     1  UNL1        0.1152
     12 C         138.0605  140.4378  161.5803 C.ar    1  UNL1        0.0765
     13 C         137.3359  141.2303  162.6277 C.ar    1  UNL1        0.0193
     14 C         137.6271  142.6919  162.7973 C.ar    1  UNL1        0.0411
     15 C         138.6429  143.3611  161.9197 C.ar    1  UNL1        0.1708
     16 C         139.3675  142.5687  160.8723 C.ar    1  UNL1        0.1682
     17 N         139.0763  141.1070  160.7026 N.ar    1  UNL1       -0.2304
     18 N         140.3833  143.2379  159.9947 N.am    1  UNL1       -0.2639
     19 C         140.6745  144.6995  160.1643 C.2     1  UNL1        0.2718
     20 O         141.6903  145.3687  159.2867 O.2     1  UNL1       -0.2707
     21 C         139.9499  145.4920  161.2117 C.3     1  UNL1        0.2898
     22 O         138.9341  144.8228  162.0894 O.3     1  UNL1       -0.4628
     23 H         140.8589  142.7178  159.3073 H       1  UNL1        0.1565
     24 C         143.0238  138.0156  165.7369 C.3     1  UNL1        0.0320
     25 C         143.4015  139.3053  166.4035 C.3     1  UNL1        0.0327
     26 C         141.5667  142.8327  164.2961 C.ar    1  UNL1        0.2249
     27 C         140.5189  143.6559  164.9848 C.ar    1  UNL1        0.0593
     28 C         140.0827  143.3033  166.3760 C.ar    1  UNL1        0.0254
     29 C         140.6942  142.1275  167.0785 C.ar    1  UNL1        0.0990
     30 N         140.2580  141.7750  168.4697 N.ar    1  UNL1       -0.2400
     31 C         140.8696  140.5992  169.1721 C.ar    1  UNL1        0.1281
     32 C         141.9175  139.7759  168.4834 C.ar    1  UNL1        0.1566
     33 F         142.5290  138.6001  169.1858 F       1  UNL1       -0.2028
     34 C         142.3537  140.1285  167.0922 C.ar    1  UNL1        0.0261
     35 C         141.7420  141.3043  166.3897 C.ar    1  UNL1        0.1002
     36 N         142.1783  141.6569  164.9986 N.ar    1  UNL1       -0.2104
     37 O         142.0029  143.1852  162.9049 O.3     1  UNL1       -0.4602
     38 C         143.6853  144.9942  163.7093 C.3     1  UNL1        0.0512
     39 C         143.2571  143.9796  162.6908 C.3     1  UNL1        0.2072
@<TRIPOS>BOND
     1    38    39    1
     2    39    37    1
     3    37    26    1
     4    26    27   ar
     5    27    28   ar
     6    28    29   ar
     7    29    30   ar
     8    30    31   ar
     9    31    32   ar
    10    32    33    1
    11    32    34   ar
    12    34    25    1
    13    25    24    1
    14    24     1    1
    15     1     2    1
    16     2     3    1
    17     3     4    1
    18     4     9    1
    19     9    11    1
    20    11    12    1
    21    12    13   ar
    22    13    14   ar
    23    14    15   ar
    24    15    16   ar
    25    16    17   ar
    26    16    18    1
    27    18    19   am
    28    19    20    2
    29    19    21    1
    30    21    22    1
    31     4     5    1
    32     5     6    1
    33     4     7    1
    34     7     8    1
    35    34    35   ar
    36    35    36   ar
    37    36    26   ar
    38    35    29   ar
    39     6     1    1
    40     8     1    1
    41    17    12   ar
    42    22    15    1
    43     9    10    1
    44    18    23    1
@<TRIPOS>MOLECULE
*****
 39 44 0 0 0
SMALL
GASTEIGER

@<TRIPOS>ATOM
      1 C         137.8885  143.0858  162.6683 C.3     1  UNL1        0.0932
      2 C         137.4519  141.8210  163.3462 C.3     1  UNL1        0.0286
      3 C         137.5605  140.5089  162.6275 C.3     1  UNL1        0.0193
      4 C         138.1058  140.4616  161.2309 C.3     1  UNL1        0.0700
      5 C         138.5425  141.7265  160.5530 C.3     1  UNL1        0.0193
      6 C         138.4338  143.0386  161.2718 C.3     1  UNL1        0.0286
      7 C         138.0654  141.2041  161.5844 C.3     1  UNL1        0.1562
      8 O         137.9671  142.3906  162.2342 O.3     1  UNL1       -0.3572
      9 N         138.2145  139.1495  160.5122 N.3     1  UNL1       -0.2926
     10 H         138.5873  139.3519  159.5846 H       1  UNL1        0.1236
     11 C         139.0551  138.0475  161.0858 C.3     1  UNL1        0.1152
     12 C         140.3930  138.3605  161.6875 C.ar    1  UNL1        0.0765
     13 C         141.4855  138.9302  160.8319 C.ar    1  UNL1        0.0193
     14 C         142.8234  139.2431  161.4336 C.ar    1  UNL1        0.0411
     15 C         143.0689  138.9863  162.8909 C.ar    1  UNL1        0.1708
     16 C         141.9765  138.4166  163.7465 C.ar    1  UNL1        0.1682
     17 N         140.6386  138.1036  163.1448 N.ar    1  UNL1       -0.2304
     18 N         142.2221  138.1598  165.2038 N.am    1  UNL1       -0.2639
     19 C         143.5599  138.4727  165.8055 C.2     1  UNL1        0.2718
     20 O         143.8055  138.2158  167.2628 O.2     1  UNL1       -0.2707
     21 C         144.6524  139.0424  164.9499 C.3     1  UNL1        0.2898
     22 O         144.4069  139.2992  163.4926 O.3     1  UNL1       -0.4628
     23 H         141.5051  137.7858  165.7654 H       1  UNL1        0.1565
     24 C         137.7799  144.3979  163.3870 C.3     1  UNL1        0.0320
     25 C         138.7900  144.7660  164.4331 C.3     1  UNL1        0.0327
     26 C         140.9157  142.0443  167.3182 C.ar    1  UNL1        0.2249
     27 C         142.3644  141.7156  167.1104 C.ar    1  UNL1        0.0593
     28 C         143.1045  142.2941  165.9410 C.ar    1  UNL1        0.0254
     29 C         142.3960  143.2013  164.9793 C.ar    1  UNL1        0.0990
     30 N         143.1361  143.7798  163.8099 N.ar    1  UNL1       -0.2400
     31 C         142.4276  144.6870  162.8482 C.ar    1  UNL1        0.1281
     32 C         140.9788  145.0158  163.0559 C.ar    1  UNL1        0.1566
     33 F         140.2703  145.9230  162.0943 F       1  UNL1       -0.2028
     34 C         140.2387  144.4373  164.2254 C.ar    1  UNL1        0.0261
     35 C         140.9473  143.5300  165.1871 C.ar    1  UNL1        0.1002
     36 N         140.2072  142.9515  166.3565 N.ar    1  UNL1       -0.2104
     37 O         140.1756  141.4658  168.4876 O.3     1  UNL1       -0.4602
     38 C         140.5136  143.6773  169.8085 C.3     1  UNL1        0.0512
     39 C         140.0511  142.2513  169.7594 C.3     1  UNL1        0.2072
@<TRIPOS>BOND
     1    38    39    1
     2    39    37    1
     3    37    26    1
     4    26    27   ar
     5    27    28   ar
     6    28    29   ar
     7    29    30   ar
     8    30    31   ar
     9    31    32   ar
    10    32    33    1
    11    32    34   ar
    12    34    25    1
    13    25    24    1
    14    24     1    1
    15     1     2    1
    16     2     3    1
    17     3     4    1
    18     4     9    1
    19     9    11    1
    20    11    12    1
    21    12    13   ar
    22    13    14   ar
    23    14    15   ar
    24    15    16   ar
    25    16    17   ar
    26    16    18    1
    27    18    19   am
    28    19    20    2
    29    19    21    1
    30    21    22    1
    31     4     5    1
    32     5     6    1
    33     4     7    1
    34     7     8    1
    35    34    35   ar
    36    35    36   ar
    37    36    26   ar
    38    35    29   ar
    39     6     1    1
    40     8     1    1
    41    17    12   ar
    42    22    15    1
    43     9    10    1
    44    18    23    1
@<TRIPOS>MOLECULE
*****
 39 44 0 0 0
SMALL
GASTEIGER

@<TRIPOS>ATOM
      1 C         143.7126  142.1438  163.6002 C.3     1  UNL1        0.0932
      2 C         143.7490  142.8527  162.2787 C.3     1  UNL1        0.0286
      3 C         142.9537  144.1087  162.0792 C.3     1  UNL1        0.0193
      4 C         142.1219  144.6559  163.2012 C.3     1  UNL1        0.0700
      5 C         142.0855  143.9470  164.5227 C.3     1  UNL1        0.0193
      6 C         142.8809  142.6909  164.7221 C.3     1  UNL1        0.0286
      7 C         142.5408  143.9646  163.3580 C.3     1  UNL1        0.1562
      8 O         143.2599  142.8288  163.5384 O.3     1  UNL1       -0.3572
      9 N         141.3266  145.9119  163.0017 N.3     1  UNL1       -0.2926
     10 H         141.8932  146.5301  162.4210 H       1  UNL1        0.1236
     11 C         139.9685  145.8471  162.3683 C.3     1  UNL1        0.1152
     12 C         139.2829  144.5239  162.1977 C.ar    1  UNL1        0.0765
     13 C         138.4837  143.9423  163.3261 C.ar    1  UNL1        0.0193
     14 C         137.7981  142.6191  163.1555 C.ar    1  UNL1        0.0411
     15 C         137.9117  141.8775  161.8567 C.ar    1  UNL1        0.1708
     16 C         138.7108  142.4590  160.7283 C.ar    1  UNL1        0.1682
     17 N         139.3964  143.7823  160.8989 N.ar    1  UNL1       -0.2304
     18 N         138.8243  141.7174  159.4295 N.am    1  UNL1       -0.2639
     19 C         138.1388  140.3942  159.2589 C.2     1  UNL1        0.2718
     20 O         138.2523  139.6525  157.9600 O.2     1  UNL1       -0.2707
     21 C         137.3396  139.8126  160.3873 C.3     1  UNL1        0.2898
     22 O         137.2260  140.5542  161.6861 O.3     1  UNL1       -0.4628
     23 H         139.3489  142.0991  158.6889 H       1  UNL1        0.1565
     24 C         144.5079  140.8878  163.7996 C.3     1  UNL1        0.0320
     25 C         143.8425  139.6565  164.3394 C.3     1  UNL1        0.0327
     26 C         139.7034  139.5365  166.1009 C.ar    1  UNL1        0.2249
     27 C         138.5822  138.8945  165.3388 C.ar    1  UNL1        0.0593
     28 C         138.8408  138.2925  163.9894 C.ar    1  UNL1        0.0254
     29 C         140.2205  138.3325  163.4022 C.ar    1  UNL1        0.0990
     30 N         140.4791  137.7306  162.0528 N.ar    1  UNL1       -0.2400
     31 C         141.8587  137.7706  161.4657 C.ar    1  UNL1        0.1281
     32 C         142.9800  138.4126  162.2278 C.ar    1  UNL1        0.1566
     33 F         144.3596  138.4525  161.6407 F       1  UNL1       -0.2028
     34 C         142.7214  139.0145  163.5772 C.ar    1  UNL1        0.0261
     35 C         141.3416  138.9745  164.1644 C.ar    1  UNL1        0.1002
     36 N         141.0830  139.5764  165.5137 N.ar    1  UNL1       -0.2104
     37 O         139.4448  140.1384  167.4503 O.3     1  UNL1       -0.4602
     38 C         140.4720  142.5213  167.5793 C.3     1  UNL1        0.0512
     39 C         140.4334  141.0963  168.0461 C.3     1  UNL1        0.2072
@<TRIPOS>BOND
     1    38    39    1
     2    39    37    1
     3    37    26    1
     4    26    27   ar
     5    27    28   ar
     6    28    29   ar
     7    29    30   ar
     8    30    31   ar
     9    31    32   ar
    10    32    33    1
    11    32    34   ar
    12    34    25    1
    13    25    24    1
    14    24     1    1
    15     1     2    1
    16     2     3    1
    17     3     4    1
    18     4     9    1
    19     9    11    1
    20    11    12    1
    21    12    13   ar
    22    13    14   ar
    23    14    15   ar
    24    15    16   ar
    25    16    17   ar
    26    16    18    1
    27    18    19   am
    28    19    20    2
    29    19    21    1
    30    21    22    1
    31     4     5    1
    32     5     6    1
    33     4     7    1
    34     7     8    1
    35    34    35   ar
    36    35    36   ar
    37    36    26   ar
    38    35    29   ar
    39     6     1    1
    40     8     1    1
    41    17    12   ar
    42    22    15    1
    43     9    10    1
    44    18    23    1
@<TRIPOS>MOLECULE
*****
 39 44 0 0 0
SMALL
GASTEIGER

@<TRIPOS>ATOM
      1 C         138.4378  139.4918  163.9552 C.3     1  UNL1        0.0932
      2 C         138.2021  140.5847  164.9551 C.3     1  UNL1        0.0286
      3 C         137.8346  141.9620  164.4882 C.3     1  UNL1        0.0193
      4 C         137.7027  142.2463  163.0212 C.3     1  UNL1        0.0700
      5 C         137.9385  141.1533  162.0213 C.3     1  UNL1        0.0193
      6 C         138.3060  139.7760  162.4884 C.3     1  UNL1        0.0286
      7 C         137.9061  141.4760  163.2292 C.3     1  UNL1        0.1562
      8 O         138.2385  140.2307  163.6514 O.3     1  UNL1       -0.3572
      9 N         137.3352  143.6235  162.5543 N.3     1  UNL1       -0.2926
     10 H         136.5088  143.9029  163.0829 H       1  UNL1        0.1236
     11 C         138.3246  144.7447  162.6730 C.3     1  UNL1        0.1152
     12 C         139.7957  144.4536  162.6385 C.ar    1  UNL1        0.0765
     13 C         140.6565  144.7995  163.8172 C.ar    1  UNL1        0.0193
     14 C         142.1276  144.5084  163.7828 C.ar    1  UNL1        0.0411
     15 C         142.7378  143.8713  162.5696 C.ar    1  UNL1        0.1708
     16 C         141.8771  143.5254  161.3909 C.ar    1  UNL1        0.1682
     17 N         140.4059  143.8165  161.4254 N.ar    1  UNL1       -0.2304
     18 N         142.4873  142.8883  160.1778 N.am    1  UNL1       -0.2639
     19 C         143.9584  142.5972  160.1433 C.2     1  UNL1        0.2718
     20 O         144.5686  141.9601  158.9302 O.2     1  UNL1       -0.2707
     21 C         144.8192  142.9432  161.3220 C.3     1  UNL1        0.2898
     22 O         144.2090  143.5802  162.5352 O.3     1  UNL1       -0.4628
     23 H         141.9223  142.6613  159.4042 H       1  UNL1        0.1565
     24 C         138.8054  138.1145  164.4222 C.3     1  UNL1        0.0320
     25 C         140.1779  137.8482  164.9657 C.3     1  UNL1        0.0327
     26 C         141.7631  141.2530  167.4444 C.ar    1  UNL1        0.2249
     27 C         142.9321  142.0558  166.9557 C.ar    1  UNL1        0.0593
     28 C         143.5727  141.7237  165.6406 C.ar    1  UNL1        0.0254
     29 C         143.0443  140.5888  164.8144 C.ar    1  UNL1        0.0990
     30 N         143.6849  140.2566  163.4994 N.ar    1  UNL1       -0.2400
     31 C         143.1566  139.1217  162.6731 C.ar    1  UNL1        0.1281
     32 C         141.9875  138.3189  163.1619 C.ar    1  UNL1        0.1566
     33 F         141.4592  137.1839  162.3356 F       1  UNL1       -0.2028
     34 C         141.3469  138.6510  164.4769 C.ar    1  UNL1        0.0261
     35 C         141.8753  139.7860  165.3032 C.ar    1  UNL1        0.1002
     36 N         141.2347  140.1181  166.6182 N.ar    1  UNL1       -0.2104
     37 O         141.1224  141.5852  168.7595 O.3     1  UNL1       -0.4602
     38 C         140.4865  143.8623  169.8366 C.3     1  UNL1        0.0512
     39 C         141.5204  142.8309  169.4942 C.3     1  UNL1        0.2072
@<TRIPOS>BOND
     1    38    39    1
     2    39    37    1
     3    37    26    1
     4    26    27   ar
     5    27    28   ar
     6    28    29   ar
     7    29    30   ar
     8    30    31   ar
     9    31    32   ar
    10    32    33    1
    11    32    34   ar
    12    34    25    1
    13    25    24    1
    14    24     1    1
    15     1     2    1
    16     2     3    1
    17     3     4    1
    18     4     9    1
    19     9    11    1
    20    11    12    1
    21    12    13   ar
    22    13    14   ar
    23    14    15   ar
    24    15    16   ar
    25    16    17   ar
    26    16    18    1
    27    18    19   am
    28    19    20    2
    29    19    21    1
    30    21    22    1
    31     4     5    1
    32     5     6    1
    33     4     7    1
    34     7     8    1
    35    34    35   ar
    36    35    36   ar
    37    36    26   ar
    38    35    29   ar
    39     6     1    1
    40     8     1    1
    41    17    12   ar
    42    22    15    1
    43     9    10    1
    44    18    23    1
@<TRIPOS>MOLECULE
*****
 39 44 0 0 0
SMALL
GASTEIGER

@<TRIPOS>ATOM
      1 C         139.5077  137.9489  164.4570 C.3     1  UNL1        0.0932
      2 C         139.0707  138.0857  163.0286 C.3     1  UNL1        0.0286
      3 C         140.0686  137.9251  161.9203 C.3     1  UNL1        0.0193
      4 C         141.5036  137.6277  162.2404 C.3     1  UNL1        0.0700
      5 C         141.9406  137.4909  163.6688 C.3     1  UNL1        0.0193
      6 C         140.9426  137.6515  164.7771 C.3     1  UNL1        0.0286
      7 C         140.9932  137.7073  162.8816 C.3     1  UNL1        0.1562
      8 O         140.0908  137.8525  163.8837 O.3     1  UNL1       -0.3572
      9 N         142.5015  137.4671  161.1321 N.3     1  UNL1       -0.2926
     10 H         142.0102  137.6709  160.2618 H       1  UNL1        0.1236
     11 C         143.7543  138.2920  161.1255 C.3     1  UNL1        0.1152
     12 C         143.6800  139.7706  161.3667 C.ar    1  UNL1        0.0765
     13 C         143.1836  140.6830  160.2844 C.ar    1  UNL1        0.0193
     14 C         143.1092  142.1616  160.5255 C.ar    1  UNL1        0.0411
     15 C         143.5313  142.7279  161.8488 C.ar    1  UNL1        0.1708
     16 C         144.0277  141.8156  162.9311 C.ar    1  UNL1        0.1682
     17 N         144.1020  140.3369  162.6900 N.ar    1  UNL1       -0.2304
     18 N         144.4497  142.3819  164.2544 N.am    1  UNL1       -0.2639
     19 C         144.3754  143.8605  164.4955 C.2     1  UNL1        0.2718
     20 O         144.7974  144.4268  165.8188 O.2     1  UNL1       -0.2707
     21 C         143.8790  144.7729  163.4132 C.3     1  UNL1        0.2898
     22 O         143.4569  144.2066  162.0899 O.3     1  UNL1       -0.4628
     23 H         144.7755  141.7831  164.9647 H       1  UNL1        0.1565
     24 C         138.5098  138.1095  165.5653 C.3     1  UNL1        0.0320
     25 C         138.1223  139.4811  166.0327 C.3     1  UNL1        0.0327
     26 C         138.6250  142.5866  162.8151 C.ar    1  UNL1        0.2249
     27 C         139.6699  143.6531  162.9588 C.ar    1  UNL1        0.0593
     28 C         140.5474  143.6844  164.1750 C.ar    1  UNL1        0.0254
     29 C         140.3798  142.6492  165.2475 C.ar    1  UNL1        0.0990
     30 N         141.2572  142.6805  166.4637 N.ar    1  UNL1       -0.2400
     31 C         141.0897  141.6454  167.5362 C.ar    1  UNL1        0.1281
     32 C         140.0447  140.5789  167.3926 C.ar    1  UNL1        0.1566
     33 F         139.8771  139.5437  168.4651 F       1  UNL1       -0.2028
     34 C         139.1672  140.5476  166.1764 C.ar    1  UNL1        0.0261
     35 C         139.3348  141.5828  165.1038 C.ar    1  UNL1        0.1002
     36 N         138.4574  141.5515  163.8876 N.ar    1  UNL1       -0.2104
     37 O         137.7475  142.5553  161.5989 O.3     1  UNL1       -0.4602
     38 C         139.3835  141.1814  160.1205 C.3     1  UNL1        0.0512
     39 C         138.3392  142.2497  160.2549 C.3     1  UNL1        0.2072
@<TRIPOS>BOND
     1    38    39    1
     2    39    37    1
     3    37    26    1
     4    26    27   ar
     5    27    28   ar
     6    28    29   ar
     7    29    30   ar
     8    30    31   ar
     9    31    32   ar
    10    32    33    1
    11    32    34   ar
    12    34    25    1
    13    25    24    1
    14    24     1    1
    15     1     2    1
    16     2     3    1
    17     3     4    1
    18     4     9    1
    19     9    11    1
    20    11    12    1
    21    12    13   ar
    22    13    14   ar
    23    14    15   ar
    24    15    16   ar
    25    16    17   ar
    26    16    18    1
    27    18    19   am
    28    19    20    2
    29    19    21    1
    30    21    22    1
    31     4     5    1
    32     5     6    1
    33     4     7    1
    34     7     8    1
    35    34    35   ar
    36    35    36   ar
    37    36    26   ar
    38    35    29   ar
    39     6     1    1
    40     8     1    1
    41    17    12   ar
    42    22    15    1
    43     9    10    1
    44    18    23    1
@<TRIPOS>MOLECULE
*****
 39 44 0 0 0
SMALL
GASTEIGER

@<TRIPOS>ATOM
      1 C         144.4375  139.8303  163.7039 C.3     1  UNL1        0.0932
      2 C         143.5677  139.3942  164.8455 C.3     1  UNL1        0.0286
      3 C         142.4241  138.4550  164.6008 C.3     1  UNL1        0.0193
      4 C         142.1502  137.9519  163.2144 C.3     1  UNL1        0.0700
      5 C         143.0200  138.3880  162.0728 C.3     1  UNL1        0.0193
      6 C         144.1637  139.3272  162.3176 C.3     1  UNL1        0.0286
      7 C         142.7883  138.4651  163.2994 C.3     1  UNL1        0.1562
      8 O         143.8225  139.3144  163.5207 O.3     1  UNL1       -0.3572
      9 N         141.0065  137.0126  162.9697 N.3     1  UNL1       -0.2926
     10 H         140.8943  136.4580  163.8183 H       1  UNL1        0.1236
     11 C         139.6513  137.5550  162.6244 C.3     1  UNL1        0.1152
     12 C         139.2085  138.8762  163.1797 C.ar    1  UNL1        0.0765
     13 C         138.6136  138.9505  164.5547 C.ar    1  UNL1        0.0193
     14 C         138.1708  140.2717  165.1100 C.ar    1  UNL1        0.0411
     15 C         138.3228  141.5186  164.2902 C.ar    1  UNL1        0.1708
     16 C         138.9176  141.4444  162.9152 C.ar    1  UNL1        0.1682
     17 N         139.3604  140.1231  162.3599 N.ar    1  UNL1       -0.2304
     18 N         139.0695  142.6913  162.0954 N.am    1  UNL1       -0.2639
     19 C         138.6267  144.0125  162.6506 C.2     1  UNL1        0.2718
     20 O         138.7787  145.2595  161.8309 O.2     1  UNL1       -0.2707
     21 C         138.0319  144.0868  164.0257 C.3     1  UNL1        0.2898
     22 O         137.8799  142.8398  164.8455 O.3     1  UNL1       -0.4628
     23 H         139.4599  142.6426  161.1930 H       1  UNL1        0.1565
     24 C         145.5812  140.7695  163.9486 C.3     1  UNL1        0.0320
     25 C         145.6873  142.0428  163.1628 C.3     1  UNL1        0.0327
     26 C         143.4804  142.6024  159.2812 C.ar    1  UNL1        0.2249
     27 C         142.3119  143.5403  159.2114 C.ar    1  UNL1        0.0593
     28 C         141.8790  144.2916  160.4353 C.ar    1  UNL1        0.0254
     29 C         142.6146  144.1051  161.7292 C.ar    1  UNL1        0.0990
     30 N         142.1817  144.8565  162.9531 N.ar    1  UNL1       -0.2400
     31 C         142.9173  144.6700  164.2469 C.ar    1  UNL1        0.1281
     32 C         144.0859  143.7321  164.3169 C.ar    1  UNL1        0.1566
     33 F         144.8215  143.5455  165.6107 F       1  UNL1       -0.2028
     34 C         144.5188  142.9807  163.0929 C.ar    1  UNL1        0.0261
     35 C         143.7831  143.1673  161.7990 C.ar    1  UNL1        0.1002
     36 N         144.2160  142.4159  160.5751 N.ar    1  UNL1       -0.2104
     37 O         143.9133  141.8511  158.0573 O.3     1  UNL1       -0.4602
     38 C         143.3758  139.5230  157.0370 C.3     1  UNL1        0.0512
     39 C         144.0319  140.3564  158.0977 C.3     1  UNL1        0.2072
@<TRIPOS>BOND
     1    38    39    1
     2    39    37    1
     3    37    26    1
     4    26    27   ar
     5    27    28   ar
     6    28    29   ar
     7    29    30   ar
     8    30    31   ar
     9    31    32   ar
    10    32    33    1
    11    32    34   ar
    12    34    25    1
    13    25    24    1
    14    24     1    1
    15     1     2    1
    16     2     3    1
    17     3     4    1
    18     4     9    1
    19     9    11    1
    20    11    12    1
    21    12    13   ar
    22    13    14   ar
    23    14    15   ar
    24    15    16   ar
    25    16    17   ar
    26    16    18    1
    27    18    19   am
    28    19    20    2
    29    19    21    1
    30    21    22    1
    31     4     5    1
    32     5     6    1
    33     4     7    1
    34     7     8    1
    35    34    35   ar
    36    35    36   ar
    37    36    26   ar
    38    35    29   ar
    39     6     1    1
    40     8     1    1
    41    17    12   ar
    42    22    15    1
    43     9    10    1
    44    18    23    1
