@<TRIPOS>MOLECULE
*****
 32 35 0 0 0
SMALL
GASTEIGER

@<TRIPOS>ATOM
      1 C         141.8649  139.4791  161.4964 C.ar    1  UNL1        0.0674
      2 C         141.8216  137.9881  161.6549 C.ar    1  UNL1        0.1133
      3 N         140.9758  137.3725  162.7299 N.ar    1  UNL1       -0.2425
      4 C         140.1734  138.2478  163.6464 C.ar    1  UNL1        0.0825
      5 C         139.3276  137.6321  164.7215 C.ar    1  UNL1        0.0230
      6 C         138.5252  138.5074  165.6379 C.ar    1  UNL1        0.0741
      7 C         138.5686  139.9984  165.4794 C.ar    1  UNL1        0.0183
      8 C         139.4143  140.6140  164.4044 C.ar    1  UNL1        0.0463
      9 C         140.2167  139.7387  163.4879 C.ar    1  UNL1        0.0320
     10 C         141.0625  140.3544  162.4129 C.ar    1  UNL1        0.0188
     11 C         145.2478  141.9418  157.1963 C.3     1  UNL1        0.0897
     12 N         144.4021  141.3261  158.2713 N.3     1  UNL1       -0.2686
     13 C         144.2562  142.0134  159.5966 C.3     1  UNL1        0.0938
     14 C         143.4105  141.3977  160.6716 C.3     1  UNL1        0.1082
     15 N         142.7107  140.0948  160.4214 N.pl3   1  UNL1       -0.3034
     16 C         142.8566  139.4075  159.0961 C.3     1  UNL1        0.1082
     17 C         143.7023  140.0232  158.0210 C.3     1  UNL1        0.0938
     18 C         137.6795  137.8918  166.7129 C.3     1  UNL1        0.4187
     19 F         136.8337  137.2760  167.7880 F       1  UNL1       -0.1659
     20 F         137.7969  136.5561  166.0405 F       1  UNL1       -0.1659
     21 F         137.5620  139.2274  167.3854 F       1  UNL1       -0.1659
     22 N         139.4576  142.1050  164.2459 N.pl3   1  UNL1       -0.3290
     23 H         139.3814  142.5072  163.3505 H       1  UNL1        0.1471
     24 C         139.6170  142.9831  165.4515 C.3     1  UNL1        0.1143
     25 C         140.7187  142.7157  166.4337 C.ar    1  UNL1       -0.0020
     26 C         142.1320  142.5675  165.9534 C.ar    1  UNL1       -0.0026
     27 C         143.2337  142.3001  166.9356 C.ar    1  UNL1        0.0004
     28 C         142.9222  142.1810  168.3981 C.ar    1  UNL1        0.0103
     29 C         141.5090  142.3293  168.8784 C.ar    1  UNL1        0.0682
     30 C         140.4072  142.5966  167.8961 C.ar    1  UNL1        0.0077
     31 C         141.1974  142.2102  170.3408 C.1     1  UNL1        0.1004
     32 N         140.8859  142.0911  171.8032 N.1     1  UNL1       -0.1908
@<TRIPOS>BOND
     1    11    12    1
     2    12    13    1
     3    13    14    1
     4    14    15    1
     5    15     1    1
     6     1     2   ar
     7     2     3   ar
     8     3     4   ar
     9     4     5   ar
    10     5     6   ar
    11     6    18    1
    12    18    19    1
    13    18    20    1
    14    18    21    1
    15     6     7   ar
    16     7     8   ar
    17     8    22    1
    18    22    24    1
    19    24    25    1
    20    25    26   ar
    21    26    27   ar
    22    27    28   ar
    23    28    29   ar
    24    29    31    1
    25    31    32    3
    26    29    30   ar
    27     8     9   ar
    28     9    10   ar
    29    15    16    1
    30    16    17    1
    31    17    12    1
    32    10     1   ar
    33     9     4   ar
    34    30    25   ar
    35    22    23    1
@<TRIPOS>MOLECULE
*****
 32 35 0 0 0
SMALL
GASTEIGER

@<TRIPOS>ATOM
      1 C         141.0292  138.5545  161.4615 C.ar    1  UNL1        0.0674
      2 C         142.1415  138.1004  162.3596 C.ar    1  UNL1        0.1133
      3 N         142.0234  138.2717  163.8451 N.ar    1  UNL1       -0.2425
      4 C         140.7931  138.8971  164.4325 C.ar    1  UNL1        0.0825
      5 C         140.6750  139.0684  165.9180 C.ar    1  UNL1        0.0230
      6 C         139.4447  139.6938  166.5055 C.ar    1  UNL1        0.0741
      7 C         138.3324  140.1480  165.6073 C.ar    1  UNL1        0.0183
      8 C         138.4505  139.9767  164.1218 C.ar    1  UNL1        0.0463
      9 C         139.6808  139.3513  163.5344 C.ar    1  UNL1        0.0320
     10 C         139.7989  139.1800  162.0490 C.ar    1  UNL1        0.0188
     11 C         141.5013  137.8695  155.5195 C.3     1  UNL1        0.0897
     12 N         141.3833  138.0407  157.0049 N.3     1  UNL1       -0.2686
     13 C         142.5965  137.8964  157.8753 C.3     1  UNL1        0.0938
     14 C         142.4784  138.0677  159.3608 C.3     1  UNL1        0.1082
     15 N         141.1473  138.3833  159.9760 N.pl3   1  UNL1       -0.3034
     16 C         139.9342  138.5276  159.1057 C.3     1  UNL1        0.1082
     17 C         140.0522  138.3563  157.6202 C.3     1  UNL1        0.0938
     18 C         139.3266  139.8651  167.9909 C.3     1  UNL1        0.4187
     19 F         139.2085  140.0364  169.4765 F       1  UNL1       -0.1659
     20 F         138.0135  139.1404  167.9701 F       1  UNL1       -0.1659
     21 F         140.6397  140.5899  168.0117 F       1  UNL1       -0.1659
     22 N         137.3382  140.4309  163.2238 N.pl3   1  UNL1       -0.3290
     23 H         136.6726  139.7826  162.8981 H       1  UNL1        0.1471
     24 C         137.2399  141.8727  162.8219 C.3     1  UNL1        0.1143
     25 C         138.2574  142.8593  163.3134 C.ar    1  UNL1       -0.0020
     26 C         137.9618  143.7050  164.5165 C.ar    1  UNL1       -0.0026
     27 C         138.9792  144.6915  165.0081 C.ar    1  UNL1        0.0004
     28 C         140.2922  144.8324  164.2965 C.ar    1  UNL1        0.0103
     29 C         140.5877  143.9868  163.0934 C.ar    1  UNL1        0.0682
     30 C         139.5703  143.0002  162.6019 C.ar    1  UNL1        0.0077
     31 C         141.9006  144.1276  162.3818 C.1     1  UNL1        0.1004
     32 N         143.2135  144.2685  161.6703 N.1     1  UNL1       -0.1908
@<TRIPOS>BOND
     1    11    12    1
     2    12    13    1
     3    13    14    1
     4    14    15    1
     5    15     1    1
     6     1     2   ar
     7     2     3   ar
     8     3     4   ar
     9     4     5   ar
    10     5     6   ar
    11     6    18    1
    12    18    19    1
    13    18    20    1
    14    18    21    1
    15     6     7   ar
    16     7     8   ar
    17     8    22    1
    18    22    24    1
    19    24    25    1
    20    25    26   ar
    21    26    27   ar
    22    27    28   ar
    23    28    29   ar
    24    29    31    1
    25    31    32    3
    26    29    30   ar
    27     8     9   ar
    28     9    10   ar
    29    15    16    1
    30    16    17    1
    31    17    12    1
    32    10     1   ar
    33     9     4   ar
    34    30    25   ar
    35    22    23    1
@<TRIPOS>MOLECULE
*****
 32 35 0 0 0
SMALL
GASTEIGER

@<TRIPOS>ATOM
      1 C         141.6984  139.7004  161.4771 C.ar    1  UNL1        0.0674
      2 C         141.2722  138.2715  161.3141 C.ar    1  UNL1        0.1133
      3 N         140.3858  137.6315  162.3410 N.ar    1  UNL1       -0.2425
      4 C         139.9256  138.4204  163.5309 C.ar    1  UNL1        0.0825
      5 C         139.0391  137.7803  164.5578 C.ar    1  UNL1        0.0230
      6 C         138.5788  138.5691  165.7477 C.ar    1  UNL1        0.0741
      7 C         139.0051  139.9981  165.9107 C.ar    1  UNL1        0.0183
      8 C         139.8915  140.6381  164.8838 C.ar    1  UNL1        0.0463
      9 C         140.3518  139.8493  163.6939 C.ar    1  UNL1        0.0320
     10 C         141.2382  140.4893  162.6670 C.ar    1  UNL1        0.0188
     11 C         145.2443  142.2606  157.3694 C.3     1  UNL1        0.0897
     12 N         144.3578  141.6206  158.3963 N.3     1  UNL1       -0.2686
     13 C         143.8485  142.4265  159.5544 C.3     1  UNL1        0.0938
     14 C         142.9620  141.7864  160.5813 C.3     1  UNL1        0.1082
     15 N         142.5849  140.3405  160.4502 N.pl3   1  UNL1       -0.3034
     16 C         143.0943  139.5347  159.2921 C.3     1  UNL1        0.1082
     17 C         143.9808  140.1747  158.2652 C.3     1  UNL1        0.0938
     18 C         137.6924  137.9291  166.7746 C.3     1  UNL1        0.4187
     19 F         136.8059  137.2890  167.8015 F       1  UNL1       -0.1659
     20 F         137.8005  136.6194  166.0516 F       1  UNL1       -0.1659
     21 F         137.5843  139.2389  167.4976 F       1  UNL1       -0.1659
     22 N         140.3177  142.0670  165.0468 N.pl3   1  UNL1       -0.3290
     23 H         139.8997  142.7708  164.4999 H       1  UNL1        0.1471
     24 C         141.3809  142.4235  166.0431 C.3     1  UNL1        0.1143
     25 C         141.2529  141.9758  167.4691 C.ar    1  UNL1       -0.0020
     26 C         140.4280  142.7740  168.4347 C.ar    1  UNL1       -0.0026
     27 C         140.3001  142.3263  169.8605 C.ar    1  UNL1        0.0004
     28 C         140.9970  141.0803  170.3209 C.ar    1  UNL1        0.0103
     29 C         141.8218  140.2820  169.3553 C.ar    1  UNL1        0.0682
     30 C         141.9498  140.7298  167.9293 C.ar    1  UNL1        0.0077
     31 C         142.5187  139.0361  169.8155 C.1     1  UNL1        0.1004
     32 N         143.2156  137.7901  170.2758 N.1     1  UNL1       -0.1908
@<TRIPOS>BOND
     1    11    12    1
     2    12    13    1
     3    13    14    1
     4    14    15    1
     5    15     1    1
     6     1     2   ar
     7     2     3   ar
     8     3     4   ar
     9     4     5   ar
    10     5     6   ar
    11     6    18    1
    12    18    19    1
    13    18    20    1
    14    18    21    1
    15     6     7   ar
    16     7     8   ar
    17     8    22    1
    18    22    24    1
    19    24    25    1
    20    25    26   ar
    21    26    27   ar
    22    27    28   ar
    23    28    29   ar
    24    29    31    1
    25    31    32    3
    26    29    30   ar
    27     8     9   ar
    28     9    10   ar
    29    15    16    1
    30    16    17    1
    31    17    12    1
    32    10     1   ar
    33     9     4   ar
    34    30    25   ar
    35    22    23    1
@<TRIPOS>MOLECULE
*****
 32 35 0 0 0
SMALL
GASTEIGER

@<TRIPOS>ATOM
      1 C         140.5046  138.6071  162.6025 C.ar    1  UNL1        0.0674
      2 C         139.1009  138.1744  162.9063 C.ar    1  UNL1        0.1133
      3 N         138.5281  138.3939  164.2751 N.ar    1  UNL1       -0.2425
      4 C         139.3590  139.0461  165.3401 C.ar    1  UNL1        0.0825
      5 C         138.7862  139.2656  166.7090 C.ar    1  UNL1        0.0230
      6 C         139.6171  139.9178  167.7740 C.ar    1  UNL1        0.0741
      7 C         141.0209  140.3504  167.4702 C.ar    1  UNL1        0.0183
      8 C         141.5937  140.1309  166.1014 C.ar    1  UNL1        0.0463
      9 C         140.7627  139.4788  165.0363 C.ar    1  UNL1        0.0320
     10 C         141.3355  139.2593  163.6675 C.ar    1  UNL1        0.0188
     11 C         142.7960  137.7292  157.1272 C.3     1  UNL1        0.0897
     12 N         142.2232  137.9487  158.4960 N.3     1  UNL1       -0.2686
     13 C         143.0407  137.6265  159.7116 C.3     1  UNL1        0.0938
     14 C         142.4678  137.8460  161.0805 C.3     1  UNL1        0.1082
     15 N         141.0775  138.3876  161.2336 N.pl3   1  UNL1       -0.3034
     16 C         140.2600  138.7098  160.0180 C.3     1  UNL1        0.1082
     17 C         140.8328  138.4904  158.6492 C.3     1  UNL1        0.0938
     18 C         139.0443  140.1372  169.1428 C.3     1  UNL1        0.4187
     19 F         138.4714  140.3567  170.5117 F       1  UNL1       -0.1659
     20 F         137.8321  139.3392  168.7636 F       1  UNL1       -0.1659
     21 F         140.2564  140.9353  169.5221 F       1  UNL1       -0.1659
     22 N         142.9974  140.5636  165.7976 N.pl3   1  UNL1       -0.3290
     23 H         143.6379  139.9223  165.4133 H       1  UNL1        0.1471
     24 C         143.4252  141.9734  166.0793 C.3     1  UNL1        0.1143
     25 C         143.0014  143.0831  165.1633 C.ar    1  UNL1       -0.0020
     26 C         144.0235  144.0331  164.6131 C.ar    1  UNL1       -0.0026
     27 C         143.5997  145.1428  163.6971 C.ar    1  UNL1        0.0004
     28 C         142.1537  145.3024  163.3313 C.ar    1  UNL1        0.0103
     29 C         141.1316  144.3524  163.8815 C.ar    1  UNL1        0.0682
     30 C         141.5555  143.2427  164.7975 C.ar    1  UNL1        0.0077
     31 C         139.6857  144.5120  163.5157 C.1     1  UNL1        0.1004
     32 N         138.2398  144.6716  163.1499 N.1     1  UNL1       -0.1908
@<TRIPOS>BOND
     1    11    12    1
     2    12    13    1
     3    13    14    1
     4    14    15    1
     5    15     1    1
     6     1     2   ar
     7     2     3   ar
     8     3     4   ar
     9     4     5   ar
    10     5     6   ar
    11     6    18    1
    12    18    19    1
    13    18    20    1
    14    18    21    1
    15     6     7   ar
    16     7     8   ar
    17     8    22    1
    18    22    24    1
    19    24    25    1
    20    25    26   ar
    21    26    27   ar
    22    27    28   ar
    23    28    29   ar
    24    29    31    1
    25    31    32    3
    26    29    30   ar
    27     8     9   ar
    28     9    10   ar
    29    15    16    1
    30    16    17    1
    31    17    12    1
    32    10     1   ar
    33     9     4   ar
    34    30    25   ar
    35    22    23    1
@<TRIPOS>MOLECULE
*****
 32 35 0 0 0
SMALL
GASTEIGER

@<TRIPOS>ATOM
      1 C         141.4093  139.4140  161.3245 C.ar    1  UNL1        0.0674
      2 C         141.5007  137.9351  161.5578 C.ar    1  UNL1        0.1133
      3 N         140.7601  137.3092  162.7022 N.ar    1  UNL1       -0.2425
      4 C         139.9280  138.1622  163.6133 C.ar    1  UNL1        0.0825
      5 C         139.1873  137.5362  164.7577 C.ar    1  UNL1        0.0230
      6 C         138.3552  138.3892  165.6688 C.ar    1  UNL1        0.0741
      7 C         138.2638  139.8682  165.4354 C.ar    1  UNL1        0.0183
      8 C         139.0044  140.4941  164.2910 C.ar    1  UNL1        0.0463
      9 C         139.8365  139.6411  163.3800 C.ar    1  UNL1        0.0320
     10 C         140.5772  140.2670  162.2356 C.ar    1  UNL1        0.0188
     11 C         144.3718  141.9180  156.7469 C.3     1  UNL1        0.0897
     12 N         143.6312  141.2920  157.8913 N.3     1  UNL1       -0.2686
     13 C         143.3437  139.8198  157.8830 C.3     1  UNL1        0.0938
     14 C         142.6030  139.1938  159.0275 C.3     1  UNL1        0.1082
     15 N         142.1499  140.0400  160.1801 N.pl3   1  UNL1       -0.3034
     16 C         142.4374  141.5122  160.1884 C.3     1  UNL1        0.1082
     17 C         143.1780  142.1382  159.0440 C.3     1  UNL1        0.0938
     18 C         137.6146  137.7633  166.8132 C.3     1  UNL1        0.4187
     19 F         136.8739  137.1374  167.9576 F       1  UNL1       -0.1659
     20 F         137.4480  139.1139  167.4440 F       1  UNL1       -0.1659
     21 F         137.7812  136.4127  166.1823 F       1  UNL1       -0.1659
     22 N         138.9129  141.9730  164.0577 N.pl3   1  UNL1       -0.3290
     23 H         138.3578  142.3220  163.3234 H       1  UNL1        0.1471
     24 C         139.6674  142.9200  164.9431 C.3     1  UNL1        0.1143
     25 C         140.9785  143.4891  164.4878 C.ar    1  UNL1       -0.0020
     26 C         141.0721  144.9326  164.0909 C.ar    1  UNL1       -0.0026
     27 C         142.3832  145.5017  163.6356 C.ar    1  UNL1        0.0004
     28 C         143.6006  144.6273  163.5773 C.ar    1  UNL1        0.0103
     29 C         143.5069  143.1838  163.9742 C.ar    1  UNL1        0.0682
     30 C         142.1958  142.6147  164.4295 C.ar    1  UNL1        0.0077
     31 C         144.7243  142.3094  163.9158 C.1     1  UNL1        0.1004
     32 N         145.9416  141.4351  163.8575 N.1     1  UNL1       -0.1908
@<TRIPOS>BOND
     1    11    12    1
     2    12    13    1
     3    13    14    1
     4    14    15    1
     5    15     1    1
     6     1     2   ar
     7     2     3   ar
     8     3     4   ar
     9     4     5   ar
    10     5     6   ar
    11     6    18    1
    12    18    19    1
    13    18    20    1
    14    18    21    1
    15     6     7   ar
    16     7     8   ar
    17     8    22    1
    18    22    24    1
    19    24    25    1
    20    25    26   ar
    21    26    27   ar
    22    27    28   ar
    23    28    29   ar
    24    29    31    1
    25    31    32    3
    26    29    30   ar
    27     8     9   ar
    28     9    10   ar
    29    15    16    1
    30    16    17    1
    31    17    12    1
    32    10     1   ar
    33     9     4   ar
    34    30    25   ar
    35    22    23    1
@<TRIPOS>MOLECULE
*****
 32 35 0 0 0
SMALL
GASTEIGER

@<TRIPOS>ATOM
      1 C         139.8058  142.4881  163.4372 C.ar    1  UNL1        0.0674
      2 C         140.5585  143.5087  164.2382 C.ar    1  UNL1        0.1133
      3 N         140.7641  143.3043  165.7099 N.ar    1  UNL1       -0.2425
      4 C         140.2171  142.0791  166.3805 C.ar    1  UNL1        0.0825
      5 C         140.4227  141.8747  167.8523 C.ar    1  UNL1        0.0230
      6 C         139.8757  140.6495  168.5230 C.ar    1  UNL1        0.0741
      7 C         139.1230  139.6288  167.7219 C.ar    1  UNL1        0.0183
      8 C         138.9173  139.8333  166.2502 C.ar    1  UNL1        0.0463
      9 C         139.4644  141.0585  165.5795 C.ar    1  UNL1        0.0320
     10 C         139.2587  141.2629  164.1079 C.ar    1  UNL1        0.0188
     11 C         138.9830  143.3057  157.5504 C.3     1  UNL1        0.0897
     12 N         139.1887  143.1014  159.0220 N.3     1  UNL1       -0.2686
     13 C         140.0809  144.0304  159.7908 C.3     1  UNL1        0.0938
     14 C         140.2865  143.8259  161.2626 C.3     1  UNL1        0.1082
     15 N         139.6001  142.6925  161.9655 N.pl3   1  UNL1       -0.3034
     16 C         138.7080  141.7635  161.1967 C.3     1  UNL1        0.1082
     17 C         138.5023  141.9679  159.7250 C.3     1  UNL1        0.0938
     18 C         140.0813  140.4451  169.9946 C.3     1  UNL1        0.4187
     19 F         140.2869  140.2406  171.4664 F       1  UNL1       -0.1659
     20 F         138.7644  141.1079  170.2707 F       1  UNL1       -0.1659
     21 F         141.3983  139.7822  169.7185 F       1  UNL1       -0.1659
     22 N         138.1646  138.8127  165.4492 N.pl3   1  UNL1       -0.3290
     23 H         137.2008  138.9285  165.2855 H       1  UNL1        0.1471
     24 C         138.8805  137.6155  164.8976 C.3     1  UNL1        0.1143
     25 C         139.8466  137.7769  163.7615 C.ar    1  UNL1       -0.0020
     26 C         141.3227  137.6923  164.0145 C.ar    1  UNL1       -0.0026
     27 C         142.2888  137.8537  162.8785 C.ar    1  UNL1        0.0004
     28 C         141.7788  138.0998  161.4894 C.ar    1  UNL1        0.0103
     29 C         140.3028  138.1844  161.2364 C.ar    1  UNL1        0.0682
     30 C         139.3366  138.0230  162.3725 C.ar    1  UNL1        0.0077
     31 C         139.7928  138.4305  159.8474 C.1     1  UNL1        0.1004
     32 N         139.2828  138.6766  158.4584 N.1     1  UNL1       -0.1908
@<TRIPOS>BOND
     1    11    12    1
     2    12    13    1
     3    13    14    1
     4    14    15    1
     5    15     1    1
     6     1     2   ar
     7     2     3   ar
     8     3     4   ar
     9     4     5   ar
    10     5     6   ar
    11     6    18    1
    12    18    19    1
    13    18    20    1
    14    18    21    1
    15     6     7   ar
    16     7     8   ar
    17     8    22    1
    18    22    24    1
    19    24    25    1
    20    25    26   ar
    21    26    27   ar
    22    27    28   ar
    23    28    29   ar
    24    29    31    1
    25    31    32    3
    26    29    30   ar
    27     8     9   ar
    28     9    10   ar
    29    15    16    1
    30    16    17    1
    31    17    12    1
    32    10     1   ar
    33     9     4   ar
    34    30    25   ar
    35    22    23    1
@<TRIPOS>MOLECULE
*****
 32 35 0 0 0
SMALL
GASTEIGER

@<TRIPOS>ATOM
      1 C         140.5436  138.7443  162.5197 C.ar    1  UNL1        0.0674
      2 C         139.4257  137.8117  162.8810 C.ar    1  UNL1        0.1133
      3 N         138.8243  137.8585  164.2544 N.ar    1  UNL1       -0.2425
      4 C         139.3407  138.8379  165.2664 C.ar    1  UNL1        0.0825
      5 C         138.7392  138.8846  166.6397 C.ar    1  UNL1        0.0230
      6 C         139.2557  139.8640  167.6517 C.ar    1  UNL1        0.0741
      7 C         140.3736  140.7966  167.2903 C.ar    1  UNL1        0.0183
      8 C         140.9750  140.7499  165.9170 C.ar    1  UNL1        0.0463
      9 C         140.4586  139.7705  164.9050 C.ar    1  UNL1        0.0320
     10 C         141.0600  139.7237  163.5317 C.ar    1  UNL1        0.0188
     11 C         142.9495  138.5573  157.0264 C.3     1  UNL1        0.0897
     12 N         142.3480  138.6040  158.3996 N.3     1  UNL1       -0.2686
     13 C         141.1871  139.5117  158.6794 C.3     1  UNL1        0.0938
     14 C         140.5856  139.5585  160.0528 C.3     1  UNL1        0.1082
     15 N         141.1450  138.6976  161.1463 N.pl3   1  UNL1       -0.3034
     16 C         142.3060  137.7899  160.8665 C.3     1  UNL1        0.1082
     17 C         142.9075  137.7431  159.4932 C.3     1  UNL1        0.0938
     18 C         138.6543  139.9108  169.0250 C.3     1  UNL1        0.4187
     19 F         138.0528  139.9576  170.3985 F       1  UNL1       -0.1659
     20 F         139.7644  140.8108  169.4805 F       1  UNL1       -0.1659
     21 F         137.5441  139.0108  168.5695 F       1  UNL1       -0.1659
     22 N         142.0929  141.6825  165.5557 N.pl3   1  UNL1       -0.3290
     23 H         143.0258  141.3700  165.5920 H       1  UNL1        0.1471
     24 C         141.7894  143.0911  165.1389 C.3     1  UNL1        0.1143
     25 C         140.4613  143.4220  164.5251 C.ar    1  UNL1       -0.0020
     26 C         139.3880  144.0583  165.3576 C.ar    1  UNL1       -0.0026
     27 C         138.0599  144.3892  164.7439 C.ar    1  UNL1        0.0004
     28 C         137.8051  144.0838  163.2976 C.ar    1  UNL1        0.0103
     29 C         138.8783  143.4474  162.4650 C.ar    1  UNL1        0.0682
     30 C         140.2065  143.1165  163.0788 C.ar    1  UNL1        0.0077
     31 C         138.6236  143.1420  161.0188 C.1     1  UNL1        0.1004
     32 N         138.3688  142.8366  159.5725 N.1     1  UNL1       -0.1908
@<TRIPOS>BOND
     1    11    12    1
     2    12    13    1
     3    13    14    1
     4    14    15    1
     5    15     1    1
     6     1     2   ar
     7     2     3   ar
     8     3     4   ar
     9     4     5   ar
    10     5     6   ar
    11     6    18    1
    12    18    19    1
    13    18    20    1
    14    18    21    1
    15     6     7   ar
    16     7     8   ar
    17     8    22    1
    18    22    24    1
    19    24    25    1
    20    25    26   ar
    21    26    27   ar
    22    27    28   ar
    23    28    29   ar
    24    29    31    1
    25    31    32    3
    26    29    30   ar
    27     8     9   ar
    28     9    10   ar
    29    15    16    1
    30    16    17    1
    31    17    12    1
    32    10     1   ar
    33     9     4   ar
    34    30    25   ar
    35    22    23    1
@<TRIPOS>MOLECULE
*****
 32 35 0 0 0
SMALL
GASTEIGER

@<TRIPOS>ATOM
      1 C         143.2240  142.9256  162.3164 C.ar    1  UNL1        0.0674
      2 C         144.5259  142.6739  163.0176 C.ar    1  UNL1        0.1133
      3 N         144.5543  142.5015  164.5074 N.ar    1  UNL1       -0.2425
      4 C         143.2808  142.5808  165.2960 C.ar    1  UNL1        0.0825
      5 C         143.3092  142.4084  166.7858 C.ar    1  UNL1        0.0230
      6 C         142.0356  142.4877  167.5744 C.ar    1  UNL1        0.0741
      7 C         140.7337  142.7394  166.8731 C.ar    1  UNL1        0.0183
      8 C         140.7054  142.9118  165.3834 C.ar    1  UNL1        0.0463
      9 C         141.9789  142.8325  164.5948 C.ar    1  UNL1        0.0320
     10 C         141.9505  143.0049  163.1050 C.ar    1  UNL1        0.0188
     11 C         143.1105  143.6153  156.3573 C.3     1  UNL1        0.0897
     12 N         143.1389  143.4429  157.8470 N.3     1  UNL1       -0.2686
     13 C         142.0684  144.0642  158.6945 C.3     1  UNL1        0.0938
     14 C         142.0968  143.8918  160.1843 C.3     1  UNL1        0.1082
     15 N         143.1956  143.0981  160.8266 N.pl3   1  UNL1       -0.3034
     16 C         144.2661  142.4768  159.9792 C.3     1  UNL1        0.1082
     17 C         144.2377  142.6492  158.4894 C.3     1  UNL1        0.0938
     18 C         142.0640  142.3152  169.0641 C.3     1  UNL1        0.4187
     19 F         142.0924  142.1428  170.5540 F       1  UNL1       -0.1659
     20 F         143.3058  141.4826  168.9441 F       1  UNL1       -0.1659
     21 F         140.8222  143.1479  169.1841 F       1  UNL1       -0.1659
     22 N         139.4035  143.1635  164.6822 N.pl3   1  UNL1       -0.3290
     23 H         138.9556  144.0354  164.7738 H       1  UNL1        0.1471
     24 C         138.7840  142.0868  163.8414 C.3     1  UNL1        0.1143
     25 C         138.9249  140.6481  164.2420 C.ar    1  UNL1       -0.0020
     26 C         139.8313  139.7389  163.4662 C.ar    1  UNL1       -0.0026
     27 C         139.9722  138.3003  163.8668 C.ar    1  UNL1        0.0004
     28 C         139.2067  137.7708  165.0431 C.ar    1  UNL1        0.0103
     29 C         138.3003  138.6800  165.8189 C.ar    1  UNL1        0.0682
     30 C         138.1594  140.1187  165.4183 C.ar    1  UNL1        0.0077
     31 C         137.5348  138.1505  166.9951 C.1     1  UNL1        0.1004
     32 N         136.7693  137.6211  168.1714 N.1     1  UNL1       -0.1908
@<TRIPOS>BOND
     1    11    12    1
     2    12    13    1
     3    13    14    1
     4    14    15    1
     5    15     1    1
     6     1     2   ar
     7     2     3   ar
     8     3     4   ar
     9     4     5   ar
    10     5     6   ar
    11     6    18    1
    12    18    19    1
    13    18    20    1
    14    18    21    1
    15     6     7   ar
    16     7     8   ar
    17     8    22    1
    18    22    24    1
    19    24    25    1
    20    25    26   ar
    21    26    27   ar
    22    27    28   ar
    23    28    29   ar
    24    29    31    1
    25    31    32    3
    26    29    30   ar
    27     8     9   ar
    28     9    10   ar
    29    15    16    1
    30    16    17    1
    31    17    12    1
    32    10     1   ar
    33     9     4   ar
    34    30    25   ar
    35    22    23    1
@<TRIPOS>MOLECULE
*****
 32 35 0 0 0
SMALL
GASTEIGER

@<TRIPOS>ATOM
      1 C         139.7791  142.7441  163.3889 C.ar    1  UNL1        0.0674
      2 C         140.3555  143.7849  164.3023 C.ar    1  UNL1        0.1133
      3 N         140.4941  143.5019  165.7688 N.ar    1  UNL1       -0.2425
      4 C         140.0562  142.1781  166.3218 C.ar    1  UNL1        0.0825
      5 C         140.1948  141.8952  167.7884 C.ar    1  UNL1        0.0230
      6 C         139.7569  140.5714  168.3415 C.ar    1  UNL1        0.0741
      7 C         139.1803  139.5306  167.4280 C.ar    1  UNL1        0.0183
      8 C         139.0418  139.8136  165.9615 C.ar    1  UNL1        0.0463
      9 C         139.4797  141.1374  165.4084 C.ar    1  UNL1        0.0320
     10 C         139.3411  141.4204  163.9419 C.ar    1  UNL1        0.0188
     11 C         139.2246  143.8759  157.5227 C.3     1  UNL1        0.0897
     12 N         139.3632  143.5930  158.9892 N.3     1  UNL1       -0.2686
     13 C         140.3249  144.3906  159.8193 C.3     1  UNL1        0.0938
     14 C         140.4635  144.1076  161.2859 C.3     1  UNL1        0.1082
     15 N         139.6405  143.0271  161.9223 N.pl3   1  UNL1       -0.3034
     16 C         138.6788  142.2295  161.0922 C.3     1  UNL1        0.1082
     17 C         138.5402  142.5124  159.6257 C.3     1  UNL1        0.0938
     18 C         139.8954  140.2884  169.8080 C.3     1  UNL1        0.4187
     19 F         140.0340  140.0054  171.2746 F       1  UNL1       -0.1659
     20 F         138.7057  141.1578  170.0882 F       1  UNL1       -0.1659
     21 F         141.0852  139.4190  169.5278 F       1  UNL1       -0.1659
     22 N         138.4653  138.7728  165.0480 N.pl3   1  UNL1       -0.3290
     23 H         137.5280  138.8403  164.7544 H       1  UNL1        0.1471
     24 C         139.3168  137.6293  164.5820 C.3     1  UNL1        0.1143
     25 C         140.6728  137.8934  163.9975 C.ar    1  UNL1       -0.0020
     26 C         141.8126  138.2810  164.8921 C.ar    1  UNL1       -0.0026
     27 C         143.1685  138.5452  164.3076 C.ar    1  UNL1        0.0004
     28 C         143.3847  138.4216  162.8284 C.ar    1  UNL1        0.0103
     29 C         142.2448  138.0339  161.9337 C.ar    1  UNL1        0.0682
     30 C         140.8888  137.7698  162.5183 C.ar    1  UNL1        0.0077
     31 C         142.4609  137.9103  160.4545 C.1     1  UNL1        0.1004
     32 N         142.6770  137.7868  158.9754 N.1     1  UNL1       -0.1908
@<TRIPOS>BOND
     1    11    12    1
     2    12    13    1
     3    13    14    1
     4    14    15    1
     5    15     1    1
     6     1     2   ar
     7     2     3   ar
     8     3     4   ar
     9     4     5   ar
    10     5     6   ar
    11     6    18    1
    12    18    19    1
    13    18    20    1
    14    18    21    1
    15     6     7   ar
    16     7     8   ar
    17     8    22    1
    18    22    24    1
    19    24    25    1
    20    25    26   ar
    21    26    27   ar
    22    27    28   ar
    23    28    29   ar
    24    29    31    1
    25    31    32    3
    26    29    30   ar
    27     8     9   ar
    28     9    10   ar
    29    15    16    1
    30    16    17    1
    31    17    12    1
    32    10     1   ar
    33     9     4   ar
    34    30    25   ar
    35    22    23    1
