@<TRIPOS>MOLECULE
*****
 31 35 0 0 0
SMALL
GASTEIGER

@<TRIPOS>ATOM
      1 C         137.8619  138.4405  166.9208 C.3     1  UNL1        0.0285
      2 C         139.1058  139.0048  166.3008 C.3     1  UNL1        0.1321
      3 C         139.4943  138.6104  164.9067 C.3     1  UNL1        0.2279
      4 O         140.7382  139.1746  164.2868 O.3     1  UNL1       -0.4707
      5 C         141.5936  140.1333  165.0608 C.ar    1  UNL1        0.1698
      6 C         142.8375  140.6976  164.4409 C.ar    1  UNL1        0.1138
      7 C         143.6928  141.6563  165.2149 C.ar    1  UNL1        0.1836
      8 F         144.9367  142.2205  164.5950 F       1  UNL1       -0.2004
      9 C         143.3043  142.0507  166.6091 C.ar    1  UNL1        0.1701
     10 F         144.1596  143.0094  167.3831 F       1  UNL1       -0.2017
     11 C         142.0604  141.4865  167.2290 C.ar    1  UNL1        0.0488
     12 C         141.6719  141.8809  168.6231 C.ar    1  UNL1        0.0097
     13 C         140.4280  141.3166  169.2431 C.ar    1  UNL1        0.0702
     14 C         139.5727  140.3579  168.4690 C.ar    1  UNL1        0.2620
     15 O         138.3288  139.7937  169.0890 O.2     1  UNL1       -0.2669
     16 N         139.9612  139.9635  167.0749 N.ar    1  UNL1       -0.2908
     17 C         141.2050  140.5277  166.4549 C.ar    1  UNL1        0.1001
     18 N         143.2260  140.3032  163.0468 N.pl3   1  UNL1       -0.3033
     19 C         143.7049  138.9488  162.6147 C.3     1  UNL1        0.0910
     20 C         143.9787  139.0024  161.1409 C.3     1  UNL1        0.0244
     21 C         143.6691  140.3898  160.6620 C.3     1  UNL1        0.0344
     22 C         143.2039  141.1937  161.8400 C.3     1  UNL1        0.0922
     23 C         143.8014  140.8862  159.2527 C.3     1  UNL1        0.0406
     24 N         143.8369  139.5787  158.5183 N.3     1  UNL1       -0.3231
     25 C         143.9214  141.8365  158.0985 C.3     1  UNL1        0.0156
     26 C         143.8119  142.3660  159.4977 C.3     1  UNL1        0.0156
     27 H         143.7628  138.8114  159.1863 H       1  UNL1        0.1188
     28 H         144.7155  139.5001  158.0063 H       1  UNL1        0.1188
     29 C         140.0395  141.7111  170.6372 C.2     1  UNL1        0.0775
     30 O         139.1532  142.9004  170.8607 O.co2   1  UNL1       -0.5444
     31 O         140.5373  140.9162  171.8078 O.co2   1  UNL1       -0.5444
@<TRIPOS>UNITY_ATOM_ATTR
30 1
charge -1
@<TRIPOS>BOND
     1     2     1    1
     2     2     3    1
     3     3     4    1
     4     4     5    1
     5     5     6   ar
     6     6    18    1
     7    18    19    1
     8    19    20    1
     9    20    21    1
    10    21    23    1
    11    23    24    1
    12    23    25    1
    13    25    26    1
    14    21    22    1
    15     6     7   ar
    16     7     8    1
    17     7     9   ar
    18     9    10    1
    19     9    11   ar
    20    11    12   ar
    21    12    13   ar
    22    13    29    1
    23    29    30   ar
    24    29    31   ar
    25    13    14   ar
    26    14    15    2
    27    14    16   ar
    28    16    17   ar
    29    16     2    1
    30    17     5   ar
    31    22    18    1
    32    17    11   ar
    33    26    23    1
    34    24    27    1
    35    24    28    1
@<TRIPOS>MOLECULE
*****
 31 35 0 0 0
SMALL
GASTEIGER

@<TRIPOS>ATOM
      1 C         138.4874  139.2071  167.0113 C.3     1  UNL1        0.0285
      2 C         139.4124  140.0660  166.2010 C.3     1  UNL1        0.1321
      3 C         139.1285  140.3115  164.7487 C.3     1  UNL1        0.2279
      4 O         140.0536  141.1703  163.9384 O.3     1  UNL1       -0.4707
      5 C         141.2625  141.7838  164.5803 C.ar    1  UNL1        0.1698
      6 C         142.1875  142.6427  163.7699 C.ar    1  UNL1        0.1138
      7 C         143.3965  143.2561  164.4118 C.ar    1  UNL1        0.1836
      8 F         144.3215  144.1150  163.6015 F       1  UNL1       -0.2004
      9 C         143.6804  143.0107  165.8642 C.ar    1  UNL1        0.1701
     10 F         144.8894  143.6241  166.5061 F       1  UNL1       -0.2017
     11 C         142.7554  142.1518  166.6745 C.ar    1  UNL1        0.0488
     12 C         143.0393  141.9064  168.1268 C.ar    1  UNL1        0.0097
     13 C         142.1143  141.0475  168.9371 C.ar    1  UNL1        0.0702
     14 C         140.9054  140.4340  168.2952 C.ar    1  UNL1        0.2620
     15 O         139.9803  139.5752  169.1055 O.2     1  UNL1       -0.2669
     16 N         140.6214  140.6795  166.8429 N.ar    1  UNL1       -0.2908
     17 C         141.5464  141.5383  166.0325 C.ar    1  UNL1        0.1001
     18 N         141.9036  142.8881  162.3177 N.pl3   1  UNL1       -0.3033
     19 C         142.1166  141.9104  161.2001 C.3     1  UNL1        0.0910
     20 C         141.7015  142.5723  159.9197 C.3     1  UNL1        0.0244
     21 C         141.2319  143.9592  160.2458 C.3     1  UNL1        0.0344
     22 C         141.3568  144.1543  161.7279 C.3     1  UNL1        0.0922
     23 C         140.7262  144.9728  159.2626 C.3     1  UNL1        0.0406
     24 N         139.8157  145.7667  160.1519 N.3     1  UNL1       -0.3231
     25 C         140.5367  145.7108  157.9706 C.3     1  UNL1        0.0156
     26 C         141.4610  144.5310  158.0318 C.3     1  UNL1        0.0156
     27 H         139.8357  145.3765  161.0941 H       1  UNL1        0.1188
     28 H         138.8640  145.7262  159.7872 H       1  UNL1        0.1188
     29 C         142.3983  140.8020  170.3895 C.2     1  UNL1        0.0775
     30 O         141.7329  141.6450  171.4366 O.co2   1  UNL1       -0.5444
     31 O         143.3476  139.7136  170.7945 O.co2   1  UNL1       -0.5444
@<TRIPOS>UNITY_ATOM_ATTR
30 1
charge -1
@<TRIPOS>BOND
     1     2     1    1
     2     2     3    1
     3     3     4    1
     4     4     5    1
     5     5     6   ar
     6     6    18    1
     7    18    19    1
     8    19    20    1
     9    20    21    1
    10    21    23    1
    11    23    24    1
    12    23    25    1
    13    25    26    1
    14    21    22    1
    15     6     7   ar
    16     7     8    1
    17     7     9   ar
    18     9    10    1
    19     9    11   ar
    20    11    12   ar
    21    12    13   ar
    22    13    29    1
    23    29    30   ar
    24    29    31   ar
    25    13    14   ar
    26    14    15    2
    27    14    16   ar
    28    16    17   ar
    29    16     2    1
    30    17     5   ar
    31    22    18    1
    32    17    11   ar
    33    26    23    1
    34    24    27    1
    35    24    28    1
@<TRIPOS>MOLECULE
*****
 31 35 0 0 0
SMALL
GASTEIGER

@<TRIPOS>ATOM
      1 C         143.2231  139.1048  166.1282 C.3     1  UNL1        0.0285
      2 C         142.5163  140.1737  165.3486 C.3     1  UNL1        0.1321
      3 C         142.6608  140.2336  163.8568 C.3     1  UNL1        0.2279
      4 O         141.9540  141.3025  163.0771 O.3     1  UNL1       -0.4707
      5 C         141.1026  142.3114  163.7893 C.ar    1  UNL1        0.1698
      6 C         140.3958  143.3803  163.0096 C.ar    1  UNL1        0.1138
      7 C         139.5444  144.3892  163.7217 C.ar    1  UNL1        0.1836
      8 F         138.8375  145.4581  162.9421 F       1  UNL1       -0.2004
      9 C         139.3998  144.3293  165.2136 C.ar    1  UNL1        0.1701
     10 F         138.5484  145.3382  165.9257 F       1  UNL1       -0.2017
     11 C         140.1066  143.2604  165.9932 C.ar    1  UNL1        0.0488
     12 C         139.9621  143.2005  167.4850 C.ar    1  UNL1        0.0097
     13 C         140.6689  142.1316  168.2647 C.ar    1  UNL1        0.0702
     14 C         141.5203  141.1227  167.5526 C.ar    1  UNL1        0.2620
     15 O         142.2271  140.0538  168.3322 O.2     1  UNL1       -0.2669
     16 N         141.6649  141.1826  166.0607 N.ar    1  UNL1       -0.2908
     17 C         140.9581  142.2515  165.2810 C.ar    1  UNL1        0.1001
     18 N         140.5403  143.4403  161.5178 N.pl3   1  UNL1       -0.3033
     19 C         139.9014  142.5077  160.5318 C.3     1  UNL1        0.0910
     20 C         140.3153  142.9344  159.1547 C.3     1  UNL1        0.0244
     21 C         141.2102  144.1307  159.2894 C.3     1  UNL1        0.0344
     22 C         141.3492  144.4434  160.7500 C.3     1  UNL1        0.0922
     23 C         141.8531  144.8824  158.1618 C.3     1  UNL1        0.0406
     24 N         143.1827  144.1898  158.1117 N.3     1  UNL1       -0.3231
     25 C         142.0342  145.8745  157.0515 C.3     1  UNL1        0.0156
     26 C         140.7467  145.8359  157.8202 C.3     1  UNL1        0.0156
     27 H         143.2159  143.4652  158.8289 H       1  UNL1        0.1188
     28 H         143.9259  144.8681  158.2792 H       1  UNL1        0.1188
     29 C         140.5243  142.0716  169.7565 C.2     1  UNL1        0.0775
     30 O         139.4090  141.2787  170.3707 O.co2   1  UNL1       -0.5444
     31 O         141.4951  142.8046  170.6342 O.co2   1  UNL1       -0.5444
@<TRIPOS>UNITY_ATOM_ATTR
30 1
charge -1
@<TRIPOS>BOND
     1     2     1    1
     2     2     3    1
     3     3     4    1
     4     4     5    1
     5     5     6   ar
     6     6    18    1
     7    18    19    1
     8    19    20    1
     9    20    21    1
    10    21    23    1
    11    23    24    1
    12    23    25    1
    13    25    26    1
    14    21    22    1
    15     6     7   ar
    16     7     8    1
    17     7     9   ar
    18     9    10    1
    19     9    11   ar
    20    11    12   ar
    21    12    13   ar
    22    13    29    1
    23    29    30   ar
    24    29    31   ar
    25    13    14   ar
    26    14    15    2
    27    14    16   ar
    28    16    17   ar
    29    16     2    1
    30    17     5   ar
    31    22    18    1
    32    17    11   ar
    33    26    23    1
    34    24    27    1
    35    24    28    1
@<TRIPOS>MOLECULE
*****
 31 35 0 0 0
SMALL
GASTEIGER

@<TRIPOS>ATOM
      1 C         143.4897  142.7514  166.9325 C.3     1  UNL1        0.0285
      2 C         142.7072  141.7909  166.0868 C.3     1  UNL1        0.1321
      3 C         143.0975  141.5608  164.6569 C.3     1  UNL1        0.2279
      4 O         142.3150  140.6004  163.8111 O.3     1  UNL1       -0.4707
      5 C         141.1422  139.8701  164.3953 C.ar    1  UNL1        0.1698
      6 C         140.3597  138.9097  163.5495 C.ar    1  UNL1        0.1138
      7 C         139.1870  138.1794  164.1337 C.ar    1  UNL1        0.1836
      8 F         138.4045  137.2190  163.2880 F       1  UNL1       -0.2004
      9 C         138.7966  138.4095  165.5637 C.ar    1  UNL1        0.1701
     10 F         137.6239  137.6793  166.1479 F       1  UNL1       -0.2017
     11 C         139.5791  139.3700  166.4094 C.ar    1  UNL1        0.0488
     12 C         139.1889  139.6001  167.8393 C.ar    1  UNL1        0.0097
     13 C         139.9714  140.5605  168.6851 C.ar    1  UNL1        0.0702
     14 C         141.1441  141.2908  168.1009 C.ar    1  UNL1        0.2620
     15 O         141.9266  142.2512  168.9467 O.2     1  UNL1       -0.2669
     16 N         141.5345  141.0607  166.6709 N.ar    1  UNL1       -0.2908
     17 C         140.7520  140.1003  165.8252 C.ar    1  UNL1        0.1001
     18 N         140.7500  138.6795  162.1196 N.pl3   1  UNL1       -0.3033
     19 C         142.0314  138.0616  161.6439 C.3     1  UNL1        0.0910
     20 C         142.0008  138.0270  160.1446 C.3     1  UNL1        0.0244
     21 C         140.7004  138.6236  159.6936 C.3     1  UNL1        0.0344
     22 C         139.9274  139.0269  160.9143 C.3     1  UNL1        0.0922
     23 C         140.2519  138.7880  158.2718 C.3     1  UNL1        0.0406
     24 N         138.8883  139.3720  158.4947 N.3     1  UNL1       -0.3231
     25 C         140.2768  138.7497  156.7725 C.3     1  UNL1        0.0156
     26 C         141.4596  138.2612  157.5551 C.3     1  UNL1        0.0156
     27 H         138.7171  139.4634  159.4961 H       1  UNL1        0.1188
     28 H         138.1844  138.7586  158.0840 H       1  UNL1        0.1188
     29 C         139.5811  140.7907  170.1151 C.2     1  UNL1        0.0775
     30 O         139.5561  139.6424  171.0798 O.co2   1  UNL1       -0.5444
     31 O         139.2158  142.1691  170.5802 O.co2   1  UNL1       -0.5444
@<TRIPOS>UNITY_ATOM_ATTR
30 1
charge -1
@<TRIPOS>BOND
     1     2     1    1
     2     2     3    1
     3     3     4    1
     4     4     5    1
     5     5     6   ar
     6     6    18    1
     7    18    19    1
     8    19    20    1
     9    20    21    1
    10    21    23    1
    11    23    24    1
    12    23    25    1
    13    25    26    1
    14    21    22    1
    15     6     7   ar
    16     7     8    1
    17     7     9   ar
    18     9    10    1
    19     9    11   ar
    20    11    12   ar
    21    12    13   ar
    22    13    29    1
    23    29    30   ar
    24    29    31   ar
    25    13    14   ar
    26    14    15    2
    27    14    16   ar
    28    16    17   ar
    29    16     2    1
    30    17     5   ar
    31    22    18    1
    32    17    11   ar
    33    26    23    1
    34    24    27    1
    35    24    28    1
@<TRIPOS>MOLECULE
*****
 31 35 0 0 0
SMALL
GASTEIGER

@<TRIPOS>ATOM
      1 C         143.1333  138.8535  166.5760 C.3     1  UNL1        0.0285
      2 C         142.3239  139.8191  165.7621 C.3     1  UNL1        0.1321
      3 C         142.2151  139.6409  164.2767 C.3     1  UNL1        0.2279
      4 O         141.4057  140.6066  163.4628 O.3     1  UNL1       -0.4707
      5 C         140.7053  141.7504  164.1342 C.ar    1  UNL1        0.1698
      6 C         139.8959  142.7161  163.3203 C.ar    1  UNL1        0.1138
      7 C         139.1955  143.8600  163.9917 C.ar    1  UNL1        0.1836
      8 F         138.3862  144.8256  163.1778 F       1  UNL1       -0.2004
      9 C         139.3044  144.0382  165.4772 C.ar    1  UNL1        0.1701
     10 F         138.6039  145.1821  166.1486 F       1  UNL1       -0.2017
     11 C         140.1137  143.0726  166.2911 C.ar    1  UNL1        0.0488
     12 C         140.2226  143.2508  167.7765 C.ar    1  UNL1        0.0097
     13 C         141.0319  142.2851  168.5904 C.ar    1  UNL1        0.0702
     14 C         141.7324  141.1413  167.9190 C.ar    1  UNL1        0.2620
     15 O         142.5417  140.1756  168.7329 O.2     1  UNL1       -0.2669
     16 N         141.6235  140.9630  166.4335 N.ar    1  UNL1       -0.2908
     17 C         140.8142  141.9287  165.6196 C.ar    1  UNL1        0.1001
     18 N         139.7871  142.5379  161.8350 N.pl3   1  UNL1       -0.3033
     19 C         140.7579  143.0492  160.8120 C.3     1  UNL1        0.0910
     20 C         140.2591  142.6444  159.4566 C.3     1  UNL1        0.0244
     21 C         138.9800  141.8829  159.6416 C.3     1  UNL1        0.0344
     22 C         138.6883  141.8171  161.1116 C.3     1  UNL1        0.0922
     23 C         138.1401  141.2912  158.5487 C.3     1  UNL1        0.0406
     24 N         137.8779  139.9327  159.1283 N.3     1  UNL1       -0.3231
     25 C         137.3913  141.1712  157.2546 C.3     1  UNL1        0.0156
     26 C         138.1107  142.4441  157.5897 C.3     1  UNL1        0.0156
     27 H         138.3356  139.8565  160.0367 H       1  UNL1        0.1188
     28 H         138.2468  139.2183  158.5007 H       1  UNL1        0.1188
     29 C         141.1408  142.4634  170.0758 C.2     1  UNL1        0.0775
     30 O         140.1749  141.7665  170.9876 O.co2   1  UNL1       -0.5444
     31 O         142.2155  143.3386  170.6494 O.co2   1  UNL1       -0.5444
@<TRIPOS>UNITY_ATOM_ATTR
30 1
charge -1
@<TRIPOS>BOND
     1     2     1    1
     2     2     3    1
     3     3     4    1
     4     4     5    1
     5     5     6   ar
     6     6    18    1
     7    18    19    1
     8    19    20    1
     9    20    21    1
    10    21    23    1
    11    23    24    1
    12    23    25    1
    13    25    26    1
    14    21    22    1
    15     6     7   ar
    16     7     8    1
    17     7     9   ar
    18     9    10    1
    19     9    11   ar
    20    11    12   ar
    21    12    13   ar
    22    13    29    1
    23    29    30   ar
    24    29    31   ar
    25    13    14   ar
    26    14    15    2
    27    14    16   ar
    28    16    17   ar
    29    16     2    1
    30    17     5   ar
    31    22    18    1
    32    17    11   ar
    33    26    23    1
    34    24    27    1
    35    24    28    1
@<TRIPOS>MOLECULE
*****
 31 35 0 0 0
SMALL
GASTEIGER

@<TRIPOS>ATOM
      1 C         138.1018  141.0285  160.6340 C.3     1  UNL1        0.0285
      2 C         139.0976  141.2595  161.7317 C.3     1  UNL1        0.1321
      3 C         139.1284  140.3459  162.9209 C.3     1  UNL1        0.2279
      4 O         140.1242  140.5770  164.0186 O.3     1  UNL1       -0.4707
      5 C         141.0893  141.7216  163.9271 C.ar    1  UNL1        0.1698
      6 C         142.0851  141.9526  165.0248 C.ar    1  UNL1        0.1138
      7 C         143.0502  143.0973  164.9332 C.ar    1  UNL1        0.1836
      8 F         144.0460  143.3283  166.0309 F       1  UNL1       -0.2004
      9 C         143.0194  144.0109  163.7439 C.ar    1  UNL1        0.1701
     10 F         143.9845  145.1556  163.6524 F       1  UNL1       -0.2017
     11 C         142.0236  143.7799  162.6462 C.ar    1  UNL1        0.0488
     12 C         141.9928  144.6935  161.4570 C.ar    1  UNL1        0.0097
     13 C         140.9970  144.4624  160.3593 C.ar    1  UNL1        0.0702
     14 C         140.0319  143.3178  160.4508 C.ar    1  UNL1        0.2620
     15 O         139.0361  143.0868  159.3531 O.2     1  UNL1       -0.2669
     16 N         140.0627  142.4041  161.6401 N.ar    1  UNL1       -0.2908
     17 C         141.0585  142.6352  162.7378 C.ar    1  UNL1        0.1001
     18 N         142.1158  141.0390  166.2140 N.pl3   1  UNL1       -0.3033
     19 C         142.9816  139.8240  166.3704 C.3     1  UNL1        0.0910
     20 C         142.6871  139.2141  167.7087 C.3     1  UNL1        0.0244
     21 C         141.6393  140.0521  168.3796 C.3     1  UNL1        0.0344
     22 C         141.2863  141.1800  167.4558 C.3     1  UNL1        0.0922
     23 C         141.0484  139.8055  169.7361 C.3     1  UNL1        0.0406
     24 N         142.1449  138.9890  170.3534 N.3     1  UNL1       -0.3231
     25 C         140.0767  139.8424  170.8781 C.3     1  UNL1        0.0156
     26 C         139.7467  140.5363  169.5899 C.3     1  UNL1        0.0156
     27 H         142.9021  138.8722  169.6800 H       1  UNL1        0.1188
     28 H         141.7801  138.0737  170.6170 H       1  UNL1        0.1188
     29 C         140.9663  145.3761  159.1700 C.2     1  UNL1        0.0775
     30 O         142.2035  145.5764  158.3460 O.co2   1  UNL1       -0.5444
     31 O         139.6983  146.0894  158.8048 O.co2   1  UNL1       -0.5444
@<TRIPOS>UNITY_ATOM_ATTR
30 1
charge -1
@<TRIPOS>BOND
     1     2     1    1
     2     2     3    1
     3     3     4    1
     4     4     5    1
     5     5     6   ar
     6     6    18    1
     7    18    19    1
     8    19    20    1
     9    20    21    1
    10    21    23    1
    11    23    24    1
    12    23    25    1
    13    25    26    1
    14    21    22    1
    15     6     7   ar
    16     7     8    1
    17     7     9   ar
    18     9    10    1
    19     9    11   ar
    20    11    12   ar
    21    12    13   ar
    22    13    29    1
    23    29    30   ar
    24    29    31   ar
    25    13    14   ar
    26    14    15    2
    27    14    16   ar
    28    16    17   ar
    29    16     2    1
    30    17     5   ar
    31    22    18    1
    32    17    11   ar
    33    26    23    1
    34    24    27    1
    35    24    28    1
@<TRIPOS>MOLECULE
*****
 31 35 0 0 0
SMALL
GASTEIGER

@<TRIPOS>ATOM
      1 C         144.0456  140.6134  160.7407 C.3     1  UNL1        0.0285
      2 C         142.8995  140.9020  161.6644 C.3     1  UNL1        0.1321
      3 C         142.7184  140.0887  162.9117 C.3     1  UNL1        0.2279
      4 O         141.5723  140.3773  163.8353 O.3     1  UNL1       -0.4707
      5 C         140.6073  141.4791  163.5117 C.ar    1  UNL1        0.1698
      6 C         139.4612  141.7677  164.4354 C.ar    1  UNL1        0.1138
      7 C         138.4962  142.8695  164.1118 C.ar    1  UNL1        0.1836
      8 F         137.3501  143.1580  165.0354 F       1  UNL1       -0.2004
      9 C         138.6773  143.6828  162.8644 C.ar    1  UNL1        0.1701
     10 F         137.7123  144.7846  162.5408 F       1  UNL1       -0.2017
     11 C         139.8234  143.3942  161.9407 C.ar    1  UNL1        0.0488
     12 C         140.0045  144.2074  160.6934 C.ar    1  UNL1        0.0097
     13 C         141.1506  143.9189  159.7698 C.ar    1  UNL1        0.0702
     14 C         142.1156  142.8171  160.0934 C.ar    1  UNL1        0.2620
     15 O         143.2617  142.5285  159.1697 O.2     1  UNL1       -0.2669
     16 N         141.9345  142.0038  161.3407 N.ar    1  UNL1       -0.2908
     17 C         140.7884  142.2923  162.2644 C.ar    1  UNL1        0.1001
     18 N         139.2801  140.9544  165.6827 N.pl3   1  UNL1       -0.3033
     19 C         138.4031  139.7461  165.8279 C.3     1  UNL1        0.0910
     20 C         138.5251  139.2516  167.2387 C.3     1  UNL1        0.0244
     21 C         139.4775  140.1542  167.9656 C.3     1  UNL1        0.0344
     22 C         139.9441  141.2066  167.0038 C.3     1  UNL1        0.0922
     23 C         139.8908  140.0268  169.4019 C.3     1  UNL1        0.0406
     24 N         138.5505  140.1250  170.0682 N.3     1  UNL1       -0.3231
     25 C         140.7694  139.8652  170.6067 C.3     1  UNL1        0.0156
     26 C         141.3745  139.8843  169.2343 C.3     1  UNL1        0.0156
     27 H         137.8261  140.2413  169.3596 H       1  UNL1        0.1188
     28 H         138.5419  140.9273  170.6981 H       1  UNL1        0.1188
     29 C         141.3317  144.7322  158.5224 C.2     1  UNL1        0.0775
     30 O         140.5755  144.3744  157.2774 O.co2   1  UNL1       -0.5444
     31 O         142.2691  145.9032  158.5201 O.co2   1  UNL1       -0.5444
@<TRIPOS>UNITY_ATOM_ATTR
30 1
charge -1
@<TRIPOS>BOND
     1     2     1    1
     2     2     3    1
     3     3     4    1
     4     4     5    1
     5     5     6   ar
     6     6    18    1
     7    18    19    1
     8    19    20    1
     9    20    21    1
    10    21    23    1
    11    23    24    1
    12    23    25    1
    13    25    26    1
    14    21    22    1
    15     6     7   ar
    16     7     8    1
    17     7     9   ar
    18     9    10    1
    19     9    11   ar
    20    11    12   ar
    21    12    13   ar
    22    13    29    1
    23    29    30   ar
    24    29    31   ar
    25    13    14   ar
    26    14    15    2
    27    14    16   ar
    28    16    17   ar
    29    16     2    1
    30    17     5   ar
    31    22    18    1
    32    17    11   ar
    33    26    23    1
    34    24    27    1
    35    24    28    1
@<TRIPOS>MOLECULE
*****
 31 35 0 0 0
SMALL
GASTEIGER

@<TRIPOS>ATOM
      1 C         143.6472  141.8347  160.2438 C.3     1  UNL1        0.0285
      2 C         142.9354  141.1661  161.3824 C.3     1  UNL1        0.1321
      3 C         143.3640  141.4327  162.7949 C.3     1  UNL1        0.2279
      4 O         142.6523  140.7641  163.9335 O.3     1  UNL1       -0.4707
      5 C         141.5120  139.8289  163.6596 C.ar    1  UNL1        0.1698
      6 C         140.8002  139.1603  164.7982 C.ar    1  UNL1        0.1138
      7 C         139.6599  138.2251  164.5243 C.ar    1  UNL1        0.1836
      8 F         138.9482  137.5565  165.6629 F       1  UNL1       -0.2004
      9 C         139.2313  137.9585  163.1117 C.ar    1  UNL1        0.1701
     10 F         138.0910  137.0233  162.8378 F       1  UNL1       -0.2017
     11 C         139.9430  138.6271  161.9731 C.ar    1  UNL1        0.0488
     12 C         139.5144  138.3605  160.5606 C.ar    1  UNL1        0.0097
     13 C         140.2262  139.0291  159.4220 C.ar    1  UNL1        0.0702
     14 C         141.3665  139.9643  159.6959 C.ar    1  UNL1        0.2620
     15 O         142.0782  140.6329  158.5573 O.2     1  UNL1       -0.2669
     16 N         141.7951  140.2309  161.1085 N.ar    1  UNL1       -0.2908
     17 C         141.0834  139.5623  162.2471 C.ar    1  UNL1        0.1001
     18 N         141.2288  139.4269  166.2107 N.pl3   1  UNL1       -0.3033
     19 C         142.5471  139.0487  166.8184 C.3     1  UNL1        0.0910
     20 C         142.5474  139.5065  168.2468 C.3     1  UNL1        0.0244
     21 C         141.2294  140.1678  168.5220 C.3     1  UNL1        0.0344
     22 C         140.4144  140.1185  167.2636 C.3     1  UNL1        0.0922
     23 C         140.8014  140.7721  169.8265 C.3     1  UNL1        0.0406
     24 N         140.6969  139.5331  170.6657 N.3     1  UNL1       -0.3231
     25 C         140.4098  141.8066  170.8395 C.3     1  UNL1        0.0156
     26 C         140.7573  142.2208  169.4403 C.3     1  UNL1        0.0156
     27 H         140.9400  138.7188  170.1015 H       1  UNL1        0.1188
     28 H         139.7418  139.4353  171.0100 H       1  UNL1        0.1188
     29 C         139.7975  138.7625  158.0095 C.2     1  UNL1        0.0775
     30 O         138.6128  139.4824  157.4366 O.co2   1  UNL1       -0.5444
     31 O         140.5536  137.7759  157.1698 O.co2   1  UNL1       -0.5444
@<TRIPOS>UNITY_ATOM_ATTR
30 1
charge -1
@<TRIPOS>BOND
     1     2     1    1
     2     2     3    1
     3     3     4    1
     4     4     5    1
     5     5     6   ar
     6     6    18    1
     7    18    19    1
     8    19    20    1
     9    20    21    1
    10    21    23    1
    11    23    24    1
    12    23    25    1
    13    25    26    1
    14    21    22    1
    15     6     7   ar
    16     7     8    1
    17     7     9   ar
    18     9    10    1
    19     9    11   ar
    20    11    12   ar
    21    12    13   ar
    22    13    29    1
    23    29    30   ar
    24    29    31   ar
    25    13    14   ar
    26    14    15    2
    27    14    16   ar
    28    16    17   ar
    29    16     2    1
    30    17     5   ar
    31    22    18    1
    32    17    11   ar
    33    26    23    1
    34    24    27    1
    35    24    28    1
@<TRIPOS>MOLECULE
*****
 31 35 0 0 0
SMALL
GASTEIGER

@<TRIPOS>ATOM
      1 C         143.9664  137.8398  161.5247 C.3     1  UNL1        0.0285
      2 C         142.9470  138.6008  162.3195 C.3     1  UNL1        0.1321
      3 C         143.1236  138.7703  163.7993 C.3     1  UNL1        0.2279
      4 O         142.1041  139.5312  164.5941 O.3     1  UNL1       -0.4707
      5 C         140.9081  140.1228  163.9090 C.ar    1  UNL1        0.1698
      6 C         139.8886  140.8837  164.7037 C.ar    1  UNL1        0.1138
      7 C         138.6925  141.4753  164.0186 C.ar    1  UNL1        0.1836
      8 F         137.6731  142.2363  164.8134 F       1  UNL1       -0.2004
      9 C         138.5158  141.3059  162.5387 C.ar    1  UNL1        0.1701
     10 F         137.3198  141.8974  161.8536 F       1  UNL1       -0.2017
     11 C         139.5353  140.5449  161.7439 C.ar    1  UNL1        0.0488
     12 C         139.3587  140.3755  160.2641 C.ar    1  UNL1        0.0097
     13 C         140.3781  139.6145  159.4693 C.ar    1  UNL1        0.0702
     14 C         141.5742  139.0229  160.1544 C.ar    1  UNL1        0.2620
     15 O         142.5937  138.2620  159.3597 O.2     1  UNL1       -0.2669
     16 N         141.7509  139.1924  161.6344 N.ar    1  UNL1       -0.2908
     17 C         140.7314  139.9533  162.4291 C.ar    1  UNL1        0.1001
     18 N         140.0652  141.0532  166.1836 N.pl3   1  UNL1       -0.3033
     19 C         139.5178  140.1471  167.2464 C.3     1  UNL1        0.0910
     20 C         139.9345  140.6923  168.5802 C.3     1  UNL1        0.0244
     21 C         140.7395  141.9354  168.3418 C.3     1  UNL1        0.0344
     22 C         140.8203  142.1584  166.8606 C.3     1  UNL1        0.0922
     23 C         141.3556  142.8031  169.3990 C.3     1  UNL1        0.0406
     24 N         140.1948  143.7018  169.7074 N.3     1  UNL1       -0.3231
     25 C         142.3747  143.3587  170.3490 C.3     1  UNL1        0.0156
     26 C         142.7303  142.2058  169.4577 C.3     1  UNL1        0.0156
     27 H         139.3994  143.4422  169.1240 H       1  UNL1        0.1188
     28 H         140.4543  144.6697  169.5174 H       1  UNL1        0.1188
     29 C         140.2015  139.4451  157.9894 C.2     1  UNL1        0.0775
     30 O         140.9455  140.3351  157.0385 O.co2   1  UNL1       -0.5444
     31 O         139.2807  138.3856  157.4604 O.co2   1  UNL1       -0.5444
@<TRIPOS>UNITY_ATOM_ATTR
30 1
charge -1
@<TRIPOS>BOND
     1     2     1    1
     2     2     3    1
     3     3     4    1
     4     4     5    1
     5     5     6   ar
     6     6    18    1
     7    18    19    1
     8    19    20    1
     9    20    21    1
    10    21    23    1
    11    23    24    1
    12    23    25    1
    13    25    26    1
    14    21    22    1
    15     6     7   ar
    16     7     8    1
    17     7     9   ar
    18     9    10    1
    19     9    11   ar
    20    11    12   ar
    21    12    13   ar
    22    13    29    1
    23    29    30   ar
    24    29    31   ar
    25    13    14   ar
    26    14    15    2
    27    14    16   ar
    28    16    17   ar
    29    16     2    1
    30    17     5   ar
    31    22    18    1
    32    17    11   ar
    33    26    23    1
    34    24    27    1
    35    24    28    1
