@<TRIPOS>MOLECULE
*****
 29 30 0 0 0
SMALL
GASTEIGER

@<TRIPOS>ATOM
      1 C         138.8594  139.3935  165.2898 C.2     1  UNL1        0.2640
      2 O         137.9513  140.1638  164.3777 O.2     1  UNL1       -0.2685
      3 N         139.3987  138.0611  164.8608 N.am    1  UNL1       -0.2957
      4 H         139.9947  137.5555  165.4595 H       1  UNL1        0.1501
      5 C         140.6854  141.5436  168.0813 C.ar    1  UNL1        0.2360
      6 N         140.3166  140.9817  166.7404 N.ar    1  UNL1       -0.2064
      7 C         139.2281  139.9554  166.6308 C.ar    1  UNL1        0.1388
      8 C         138.5084  139.4911  167.8622 C.ar    1  UNL1        0.0387
      9 C         138.8772  140.0530  169.2031 C.ar    1  UNL1        0.0575
     10 N         138.1574  139.5887  170.4346 N.pl3   1  UNL1       -0.3563
     11 C         139.9657  141.0793  169.3127 C.ar    1  UNL1        0.1343
     12 H         137.4430  138.9152  170.3627 H       1  UNL1        0.1424
     13 H         138.3995  139.9576  171.3147 H       1  UNL1        0.1424
     14 C         140.3344  141.6412  170.6537 C.1     1  UNL1        0.1064
     15 N         140.7031  142.2032  171.9947 N.1     1  UNL1       -0.1906
     16 O         141.7739  142.5698  168.1909 O.3     1  UNL1       -0.4597
     17 C         143.8688  142.4130  169.7194 C.3     1  UNL1        0.0512
     18 C         143.1934  142.1371  168.4087 C.3     1  UNL1        0.2073
     19 C         139.0300  137.4992  163.5199 C.3     1  UNL1        0.1166
     20 C         139.8591  137.8299  162.3144 C.ar    1  UNL1       -0.0025
     21 C         139.1950  138.2917  161.0512 C.ar    1  UNL1       -0.0013
     22 C         140.0241  138.6225  159.8457 C.ar    1  UNL1        0.0181
     23 C         141.5172  138.4914  159.9033 C.ar    1  UNL1        0.1057
     24 C         142.1813  138.0296  161.1666 C.ar    1  UNL1        0.0181
     25 C         141.3523  137.6988  162.3721 C.ar    1  UNL1       -0.0013
     26 S         142.3462  138.8222  158.6978 S.O2    1  UNL1        0.0104
     27 C         143.1753  139.1529  157.4923 C.3     1  UNL1        0.1816
     28 O         143.5861  138.7890  159.5414 O.2     1  UNL1       -0.1686
     29 O         141.1064  138.8553  157.8542 O.2     1  UNL1       -0.1686
@<TRIPOS>BOND
     1    17    18    1
     2    18    16    1
     3    16     5    1
     4     5     6   ar
     5     6     7   ar
     6     7     1    1
     7     1     2    2
     8     1     3   am
     9     3    19    1
    10    19    20    1
    11    20    21   ar
    12    21    22   ar
    13    22    23   ar
    14    23    26    1
    15    26    27    1
    16    26    28    2
    17    26    29    2
    18    23    24   ar
    19    24    25   ar
    20     7     8   ar
    21     8     9   ar
    22     9    10    1
    23     9    11   ar
    24    11    14    1
    25    14    15    3
    26    11     5   ar
    27    25    20   ar
    28     3     4    1
    29    10    12    1
    30    10    13    1
@<TRIPOS>MOLECULE
*****
 29 30 0 0 0
SMALL
GASTEIGER

@<TRIPOS>ATOM
      1 C         138.8582  139.2878  165.4792 C.2     1  UNL1        0.2640
      2 O         137.9904  140.0592  164.5295 O.2     1  UNL1       -0.2685
      3 N         139.3611  137.9269  165.0987 N.am    1  UNL1       -0.2957
      4 H         139.9307  137.4206  165.7220 H       1  UNL1        0.1501
      5 C         138.8545  140.0391  169.3761 C.ar    1  UNL1        0.2360
      6 N         138.4897  139.4496  168.0459 N.ar    1  UNL1       -0.2064
      7 C         139.2230  139.8775  166.8094 C.ar    1  UNL1        0.1388
      8 C         140.3212  140.8949  166.9029 C.ar    1  UNL1        0.0387
      9 C         140.6860  141.4844  168.2331 C.ar    1  UNL1        0.0575
     10 N         141.7843  142.5019  168.3267 N.pl3   1  UNL1       -0.3563
     11 C         139.9527  141.0566  169.4696 C.ar    1  UNL1        0.1343
     12 H         142.2656  142.7827  167.5151 H       1  UNL1        0.1424
     13 H         142.0237  142.8888  169.1997 H       1  UNL1        0.1424
     14 C         140.3175  141.6462  170.7998 C.1     1  UNL1        0.1064
     15 N         140.6823  142.2357  172.1299 N.1     1  UNL1       -0.1906
     16 O         138.1211  139.6113  170.6126 O.3     1  UNL1       -0.4597
     17 C         135.8827  138.7870  171.6423 C.3     1  UNL1        0.0512
     18 C         136.8495  138.8244  170.4960 C.3     1  UNL1        0.2073
     19 C         138.9963  137.3372  163.7686 C.3     1  UNL1        0.1166
     20 C         139.7808  137.7057  162.5443 C.ar    1  UNL1       -0.0025
     21 C         141.2775  137.6087  162.5553 C.ar    1  UNL1       -0.0013
     22 C         142.0620  137.9771  161.3310 C.ar    1  UNL1        0.0181
     23 C         141.3497  138.4425  160.0958 C.ar    1  UNL1        0.1057
     24 C         139.8528  138.5396  160.0848 C.ar    1  UNL1        0.0181
     25 C         139.0683  138.1711  161.3090 C.ar    1  UNL1       -0.0013
     26 S         142.1341  138.8110  158.8715 S.O2    1  UNL1        0.0104
     27 C         142.9186  139.1794  157.6472 C.3     1  UNL1        0.1816
     28 O         141.0071  139.6885  158.4134 O.2     1  UNL1       -0.1686
     29 O         143.2611  137.9334  159.3295 O.2     1  UNL1       -0.1686
@<TRIPOS>BOND
     1    17    18    1
     2    18    16    1
     3    16     5    1
     4     5     6   ar
     5     6     7   ar
     6     7     1    1
     7     1     2    2
     8     1     3   am
     9     3    19    1
    10    19    20    1
    11    20    21   ar
    12    21    22   ar
    13    22    23   ar
    14    23    26    1
    15    26    27    1
    16    26    28    2
    17    26    29    2
    18    23    24   ar
    19    24    25   ar
    20     7     8   ar
    21     8     9   ar
    22     9    10    1
    23     9    11   ar
    24    11    14    1
    25    14    15    3
    26    11     5   ar
    27    25    20   ar
    28     3     4    1
    29    10    12    1
    30    10    13    1
@<TRIPOS>MOLECULE
*****
 29 30 0 0 0
SMALL
GASTEIGER

@<TRIPOS>ATOM
      1 C         138.3333  141.5934  162.0460 C.2     1  UNL1        0.2640
      2 O         137.0306  141.9647  162.6904 O.2     1  UNL1       -0.2685
      3 N         139.0472  140.3423  162.4643 N.am    1  UNL1       -0.2957
      4 H         139.9022  140.0986  162.0414 H       1  UNL1        0.1501
      5 C         139.1209  143.1587  158.4852 C.ar    1  UNL1        0.2360
      6 N         138.5322  142.2789  159.5479 N.ar    1  UNL1       -0.2064
      7 C         138.9220  142.4732  160.9833 C.ar    1  UNL1        0.1388
      8 C         139.9004  143.5473  161.3560 C.ar    1  UNL1        0.0387
      9 C         140.4891  144.4271  160.2932 C.ar    1  UNL1        0.0575
     10 N         141.4676  145.5013  160.6659 N.pl3   1  UNL1       -0.3563
     11 C         140.0993  144.2328  158.8579 C.ar    1  UNL1        0.1343
     12 H         141.7234  145.6288  161.6080 H       1  UNL1        0.1424
     13 H         141.8540  146.0787  159.9684 H       1  UNL1        0.1424
     14 C         140.6881  145.1126  157.7951 C.1     1  UNL1        0.1064
     15 N         141.2767  145.9924  156.7324 N.1     1  UNL1       -0.1906
     16 O         138.7311  142.9643  157.0498 O.3     1  UNL1       -0.4597
     17 C         136.7257  141.4012  156.5162 C.3     1  UNL1        0.0512
     18 C         137.2883  142.7817  156.6826 C.3     1  UNL1        0.2073
     19 C         138.4585  139.4625  163.5270 C.3     1  UNL1        0.1166
     20 C         138.8348  139.6682  164.9644 C.ar    1  UNL1       -0.0025
     21 C         138.0771  138.9584  166.0470 C.ar    1  UNL1       -0.0013
     22 C         138.4534  139.1641  167.4844 C.ar    1  UNL1        0.0181
     23 C         139.5874  140.0796  167.8392 C.ar    1  UNL1        0.1057
     24 C         140.3452  140.7894  166.7566 C.ar    1  UNL1        0.0181
     25 C         139.9689  140.5837  165.3192 C.ar    1  UNL1       -0.0013
     26 S         139.9637  140.2853  169.2766 S.O2    1  UNL1        0.0104
     27 C         140.3400  140.4910  170.7140 C.3     1  UNL1        0.1816
     28 O         141.3456  140.6905  168.8568 O.2     1  UNL1       -0.1686
     29 O         138.5818  139.8800  169.6963 O.2     1  UNL1       -0.1686
@<TRIPOS>BOND
     1    17    18    1
     2    18    16    1
     3    16     5    1
     4     5     6   ar
     5     6     7   ar
     6     7     1    1
     7     1     2    2
     8     1     3   am
     9     3    19    1
    10    19    20    1
    11    20    21   ar
    12    21    22   ar
    13    22    23   ar
    14    23    26    1
    15    26    27    1
    16    26    28    2
    17    26    29    2
    18    23    24   ar
    19    24    25   ar
    20     7     8   ar
    21     8     9   ar
    22     9    10    1
    23     9    11   ar
    24    11    14    1
    25    14    15    3
    26    11     5   ar
    27    25    20   ar
    28     3     4    1
    29    10    12    1
    30    10    13    1
@<TRIPOS>MOLECULE
*****
 29 30 0 0 0
SMALL
GASTEIGER

@<TRIPOS>ATOM
      1 C         141.9673  138.0690  159.8321 C.2     1  UNL1        0.2640
      2 O         140.6033  138.3982  159.3018 O.2     1  UNL1       -0.2685
      3 N         143.0528  137.6351  158.8923 N.am    1  UNL1       -0.2957
      4 H         143.9480  137.4191  159.2404 H       1  UNL1        0.1501
      5 C         141.5274  137.7552  163.7638 C.ar    1  UNL1        0.2360
      6 N         141.2490  137.6504  162.2936 N.ar    1  UNL1       -0.2064
      7 C         142.2457  138.1739  161.3024 C.ar    1  UNL1        0.1388
      8 C         143.5208  138.8021  161.7813 C.ar    1  UNL1        0.0387
      9 C         143.7991  138.9069  163.2515 C.ar    1  UNL1        0.0575
     10 N         145.0743  139.5352  163.7305 N.pl3   1  UNL1       -0.3563
     11 C         142.8024  138.3835  164.2427 C.ar    1  UNL1        0.1343
     12 H         145.7285  139.8788  163.0799 H       1  UNL1        0.1424
     13 H         145.2570  139.6040  164.6955 H       1  UNL1        0.1424
     14 C         143.0809  138.4883  165.7130 C.1     1  UNL1        0.1064
     15 N         143.3593  138.5932  167.1832 N.1     1  UNL1       -0.1906
     16 O         140.5307  137.2318  164.7551 O.3     1  UNL1       -0.4597
     17 C         138.4793  138.3815  165.8596 C.3     1  UNL1        0.0512
     18 C         139.1006  137.6796  164.6886 C.3     1  UNL1        0.2073
     19 C         142.7745  137.5302  157.4221 C.3     1  UNL1        0.1166
     20 C         142.4896  136.1925  156.8063 C.ar    1  UNL1       -0.0025
     21 C         141.4563  136.0688  155.7261 C.ar    1  UNL1       -0.0013
     22 C         141.1715  134.7311  155.1102 C.ar    1  UNL1        0.0181
     23 C         141.9200  133.5170  155.5745 C.ar    1  UNL1        0.1057
     24 C         142.9535  133.6406  156.6547 C.ar    1  UNL1        0.0181
     25 C         143.2383  134.9784  157.2706 C.ar    1  UNL1       -0.0013
     26 S         141.6352  132.1793  154.9586 S.O2    1  UNL1        0.0104
     27 C         141.3504  130.8415  154.3427 C.3     1  UNL1        0.1816
     28 O         142.2057  131.5007  156.1686 O.2     1  UNL1       -0.1686
     29 O         141.0648  132.8578  153.7486 O.2     1  UNL1       -0.1686
@<TRIPOS>BOND
     1    17    18    1
     2    18    16    1
     3    16     5    1
     4     5     6   ar
     5     6     7   ar
     6     7     1    1
     7     1     2    2
     8     1     3   am
     9     3    19    1
    10    19    20    1
    11    20    21   ar
    12    21    22   ar
    13    22    23   ar
    14    23    26    1
    15    26    27    1
    16    26    28    2
    17    26    29    2
    18    23    24   ar
    19    24    25   ar
    20     7     8   ar
    21     8     9   ar
    22     9    10    1
    23     9    11   ar
    24    11    14    1
    25    14    15    3
    26    11     5   ar
    27    25    20   ar
    28     3     4    1
    29    10    12    1
    30    10    13    1
@<TRIPOS>MOLECULE
*****
 29 30 0 0 0
SMALL
GASTEIGER

@<TRIPOS>ATOM
      1 C         139.4434  139.7796  165.8781 C.2     1  UNL1        0.2640
      2 O         138.1411  140.3046  165.3506 O.2     1  UNL1       -0.2685
      3 N         139.9764  138.4661  165.3875 N.am    1  UNL1       -0.2957
      4 H         140.8312  138.1215  165.7337 H       1  UNL1        0.1501
      5 C         142.2778  142.0098  167.5342 C.ar    1  UNL1        0.2360
      6 N         141.5084  141.2214  166.5161 N.ar    1  UNL1       -0.2064
      7 C         140.2128  140.5680  166.8962 C.ar    1  UNL1        0.1388
      8 C         139.6865  140.7031  168.2943 C.ar    1  UNL1        0.0387
      9 C         140.4559  141.4915  169.3124 C.ar    1  UNL1        0.0575
     10 N         139.9296  141.6266  170.7106 N.pl3   1  UNL1       -0.3563
     11 C         141.7515  142.1449  168.9323 C.ar    1  UNL1        0.1343
     12 H         139.0792  141.1978  170.9600 H       1  UNL1        0.1424
     13 H         140.4346  142.1441  171.3787 H       1  UNL1        0.1424
     14 C         142.5209  142.9333  169.9504 C.1     1  UNL1        0.1064
     15 N         143.2902  143.7217  170.9685 N.1     1  UNL1       -0.1906
     16 O         143.5734  142.6631  167.1541 O.3     1  UNL1       -0.4597
     17 C         144.4585  142.1026  164.7767 C.3     1  UNL1        0.0512
     18 C         143.8201  143.0678  165.7310 C.3     1  UNL1        0.2073
     19 C         139.2071  137.6777  164.3694 C.3     1  UNL1        0.1166
     20 C         139.2646  138.0646  162.9213 C.ar    1  UNL1       -0.0025
     21 C         138.0269  138.5459  162.2239 C.ar    1  UNL1       -0.0013
     22 C         138.0844  138.9328  160.7758 C.ar    1  UNL1        0.0181
     23 C         139.3796  138.8384  160.0251 C.ar    1  UNL1        0.1057
     24 C         140.6173  138.3570  160.7225 C.ar    1  UNL1        0.0181
     25 C         140.5598  137.9701  162.1706 C.ar    1  UNL1       -0.0013
     26 S         139.4370  139.2253  158.5770 S.O2    1  UNL1        0.0104
     27 C         139.4945  139.6121  157.1289 C.3     1  UNL1        0.1816
     28 O         138.0872  139.8685  158.6953 O.2     1  UNL1       -0.1686
     29 O         140.7869  138.5820  158.4587 O.2     1  UNL1       -0.1686
@<TRIPOS>BOND
     1    17    18    1
     2    18    16    1
     3    16     5    1
     4     5     6   ar
     5     6     7   ar
     6     7     1    1
     7     1     2    2
     8     1     3   am
     9     3    19    1
    10    19    20    1
    11    20    21   ar
    12    21    22   ar
    13    22    23   ar
    14    23    26    1
    15    26    27    1
    16    26    28    2
    17    26    29    2
    18    23    24   ar
    19    24    25   ar
    20     7     8   ar
    21     8     9   ar
    22     9    10    1
    23     9    11   ar
    24    11    14    1
    25    14    15    3
    26    11     5   ar
    27    25    20   ar
    28     3     4    1
    29    10    12    1
    30    10    13    1
@<TRIPOS>MOLECULE
*****
 29 30 0 0 0
SMALL
GASTEIGER

@<TRIPOS>ATOM
      1 C         143.6103  142.2058  165.1311 C.2     1  UNL1        0.2640
      2 O         144.7316  143.1946  165.0091 O.2     1  UNL1       -0.2685
      3 N         143.1122  141.4828  163.9149 N.am    1  UNL1       -0.2957
      4 H         142.3762  140.8338  163.9950 H       1  UNL1        0.1501
      5 C         141.1350  140.8194  167.9062 C.ar    1  UNL1        0.2360
      6 N         141.7583  141.0853  166.5680 N.ar    1  UNL1       -0.2064
      7 C         142.9870  141.9400  166.4694 C.ar    1  UNL1        0.1388
      8 C         143.5925  142.5288  167.7090 C.ar    1  UNL1        0.0387
      9 C         142.9692  142.2630  169.0472 C.ar    1  UNL1        0.0575
     10 N         143.5747  142.8518  170.2869 N.pl3   1  UNL1       -0.3563
     11 C         141.7405  141.4082  169.1458 C.ar    1  UNL1        0.1343
     12 H         144.3811  143.4128  170.2222 H       1  UNL1        0.1424
     13 H         143.1656  142.6773  171.1652 H       1  UNL1        0.1424
     14 C         141.1172  141.1424  170.4841 C.1     1  UNL1        0.1064
     15 N         140.4940  140.8766  171.8223 N.1     1  UNL1       -0.1906
     16 O         139.9063  139.9647  168.0048 O.3     1  UNL1       -0.4597
     17 C         137.9422  138.7404  166.8244 C.3     1  UNL1        0.0512
     18 C         139.0222  139.7812  166.8070 C.3     1  UNL1        0.2073
     19 C         143.7354  141.7486  162.5767 C.3     1  UNL1        0.1166
     20 C         143.0376  142.6337  161.5868 C.ar    1  UNL1       -0.0025
     21 C         143.4239  142.5892  160.1381 C.ar    1  UNL1       -0.0013
     22 C         142.7261  143.4743  159.1483 C.ar    1  UNL1        0.0181
     23 C         141.6421  144.4039  159.6072 C.ar    1  UNL1        0.1057
     24 C         141.2558  144.4485  161.0560 C.ar    1  UNL1        0.0181
     25 C         141.9535  143.5634  162.0458 C.ar    1  UNL1       -0.0013
     26 S         140.9443  145.2890  158.6174 S.O2    1  UNL1        0.0104
     27 C         140.2465  146.1741  157.6276 C.3     1  UNL1        0.1816
     28 O         139.6332  144.6527  158.9727 O.2     1  UNL1       -0.1686
     29 O         142.2554  145.9253  158.2622 O.2     1  UNL1       -0.1686
@<TRIPOS>BOND
     1    17    18    1
     2    18    16    1
     3    16     5    1
     4     5     6   ar
     5     6     7   ar
     6     7     1    1
     7     1     2    2
     8     1     3   am
     9     3    19    1
    10    19    20    1
    11    20    21   ar
    12    21    22   ar
    13    22    23   ar
    14    23    26    1
    15    26    27    1
    16    26    28    2
    17    26    29    2
    18    23    24   ar
    19    24    25   ar
    20     7     8   ar
    21     8     9   ar
    22     9    10    1
    23     9    11   ar
    24    11    14    1
    25    14    15    3
    26    11     5   ar
    27    25    20   ar
    28     3     4    1
    29    10    12    1
    30    10    13    1
@<TRIPOS>MOLECULE
*****
 29 30 0 0 0
SMALL
GASTEIGER

@<TRIPOS>ATOM
      1 C         141.0248  145.4203  159.9407 C.2     1  UNL1        0.2640
      2 O         142.1624  144.7758  160.6758 O.2     1  UNL1       -0.2685
      3 N         139.8563  145.9721  160.7024 N.am    1  UNL1       -0.2957
      4 H         139.1096  146.3951  160.2199 H       1  UNL1        0.1501
      5 C         139.9849  146.3152  156.2167 C.ar    1  UNL1        0.2360
      6 N         139.9541  146.2225  157.7135 N.ar    1  UNL1       -0.2064
      7 C         141.0556  145.5129  158.4438 C.ar    1  UNL1        0.1388
      8 C         142.1877  144.8960  157.6773 C.ar    1  UNL1        0.0387
      9 C         142.2185  144.9887  156.1805 C.ar    1  UNL1        0.0575
     10 N         143.3507  144.3717  155.4140 N.pl3   1  UNL1       -0.3563
     11 C         141.1171  145.6983  155.4502 C.ar    1  UNL1        0.1343
     12 H         144.0736  143.9060  155.8933 H       1  UNL1        0.1424
     13 H         143.3709  144.4325  154.4315 H       1  UNL1        0.1424
     14 C         141.1478  145.7909  153.9533 C.1     1  UNL1        0.1064
     15 N         141.1786  145.8836  152.4566 N.1     1  UNL1       -0.1906
     16 O         138.8835  147.0248  155.4864 O.3     1  UNL1       -0.4597
     17 C         139.5990  149.1767  154.2187 C.3     1  UNL1        0.0512
     18 C         138.9009  148.5203  155.3728 C.3     1  UNL1        0.2073
     19 C         139.8255  145.8795  162.1991 C.3     1  UNL1        0.1166
     20 C         139.4879  144.5775  162.8632 C.ar    1  UNL1       -0.0025
     21 C         140.5351  143.8402  163.6440 C.ar    1  UNL1       -0.0013
     22 C         140.1975  142.5382  164.3081 C.ar    1  UNL1        0.0181
     23 C         138.8127  141.9737  164.1914 C.ar    1  UNL1        0.1057
     24 C         137.7654  142.7111  163.4106 C.ar    1  UNL1        0.0181
     25 C         138.1030  144.0130  162.7465 C.ar    1  UNL1       -0.0013
     26 S         138.4751  140.6718  164.8555 S.O2    1  UNL1        0.0104
     27 C         138.1375  139.3698  165.5196 C.3     1  UNL1        0.1816
     28 O         137.7243  140.2415  163.6303 O.2     1  UNL1       -0.1686
     29 O         139.2260  141.1020  166.0807 O.2     1  UNL1       -0.1686
@<TRIPOS>BOND
     1    17    18    1
     2    18    16    1
     3    16     5    1
     4     5     6   ar
     5     6     7   ar
     6     7     1    1
     7     1     2    2
     8     1     3   am
     9     3    19    1
    10    19    20    1
    11    20    21   ar
    12    21    22   ar
    13    22    23   ar
    14    23    26    1
    15    26    27    1
    16    26    28    2
    17    26    29    2
    18    23    24   ar
    19    24    25   ar
    20     7     8   ar
    21     8     9   ar
    22     9    10    1
    23     9    11   ar
    24    11    14    1
    25    14    15    3
    26    11     5   ar
    27    25    20   ar
    28     3     4    1
    29    10    12    1
    30    10    13    1
@<TRIPOS>MOLECULE
*****
 29 30 0 0 0
SMALL
GASTEIGER

@<TRIPOS>ATOM
      1 C         143.1481  139.2446  166.1683 C.2     1  UNL1        0.2640
      2 O         143.8765  138.0128  166.6178 O.2     1  UNL1       -0.2685
      3 N         143.1948  139.6598  164.7277 N.am    1  UNL1       -0.2957
      4 H         142.7167  140.4683  164.4327 H       1  UNL1        0.1501
      5 C         140.8211  142.0759  167.6910 C.ar    1  UNL1        0.2360
      6 N         141.5961  141.2593  166.6999 N.ar    1  UNL1       -0.2064
      7 C         142.3730  140.0613  167.1595 C.ar    1  UNL1        0.1388
      8 C         142.3749  139.6799  168.6102 C.ar    1  UNL1        0.0387
      9 C         141.5998  140.4965  169.6013 C.ar    1  UNL1        0.0575
     10 N         141.6016  140.1152  171.0520 N.pl3   1  UNL1       -0.3563
     11 C         140.8229  141.6945  169.1417 C.ar    1  UNL1        0.1343
     12 H         142.1115  139.3289  171.3537 H       1  UNL1        0.1424
     13 H         141.0929  140.6512  171.7025 H       1  UNL1        0.1424
     14 C         140.0478  142.5112  170.1329 C.1     1  UNL1        0.1064
     15 N         139.2727  143.3278  171.1240 N.1     1  UNL1       -0.1906
     16 O         140.0442  143.2739  167.2314 O.3     1  UNL1       -0.4597
     17 C         139.0902  144.6974  165.2786 C.3     1  UNL1        0.0512
     18 C         139.6444  143.4013  165.7913 C.3     1  UNL1        0.2073
     19 C         143.9698  138.8432  163.7365 C.3     1  UNL1        0.1166
     20 C         143.7618  139.0531  162.2659 C.ar    1  UNL1       -0.0025
     21 C         144.0240  140.3981  161.6558 C.ar    1  UNL1       -0.0013
     22 C         143.8160  140.6080  160.1852 C.ar    1  UNL1        0.0181
     23 C         143.3458  139.4729  159.3247 C.ar    1  UNL1        0.1057
     24 C         143.0836  138.1279  159.9348 C.ar    1  UNL1        0.0181
     25 C         143.2916  137.9180  161.4054 C.ar    1  UNL1       -0.0013
     26 S         143.1378  139.6828  157.8541 S.O2    1  UNL1        0.0104
     27 C         142.9298  139.8927  156.3835 C.3     1  UNL1        0.1816
     28 O         142.9422  141.1509  158.0913 O.2     1  UNL1       -0.1686
     29 O         143.3334  138.2146  157.6169 O.2     1  UNL1       -0.1686
@<TRIPOS>BOND
     1    17    18    1
     2    18    16    1
     3    16     5    1
     4     5     6   ar
     5     6     7   ar
     6     7     1    1
     7     1     2    2
     8     1     3   am
     9     3    19    1
    10    19    20    1
    11    20    21   ar
    12    21    22   ar
    13    22    23   ar
    14    23    26    1
    15    26    27    1
    16    26    28    2
    17    26    29    2
    18    23    24   ar
    19    24    25   ar
    20     7     8   ar
    21     8     9   ar
    22     9    10    1
    23     9    11   ar
    24    11    14    1
    25    14    15    3
    26    11     5   ar
    27    25    20   ar
    28     3     4    1
    29    10    12    1
    30    10    13    1
@<TRIPOS>MOLECULE
*****
 29 30 0 0 0
SMALL
GASTEIGER

@<TRIPOS>ATOM
      1 C         140.9740  145.6193  157.9185 C.2     1  UNL1        0.2640
      2 O         142.2025  146.1383  157.2320 O.2     1  UNL1       -0.2685
      3 N         139.6557  145.6255  157.2029 N.am    1  UNL1       -0.2957
      4 H         138.8494  145.2849  157.6535 H       1  UNL1        0.1501
      5 C         140.1259  144.9676  161.7403 C.ar    1  UNL1        0.2360
      6 N         140.0363  145.4928  160.3382 N.ar    1  UNL1       -0.2064
      7 C         141.0637  145.0940  159.3207 C.ar    1  UNL1        0.1388
      8 C         142.1809  144.1699  159.7054 C.ar    1  UNL1        0.0387
      9 C         142.2706  143.6447  161.1075 C.ar    1  UNL1        0.0575
     10 N         143.3878  142.7205  161.4922 N.pl3   1  UNL1       -0.3563
     11 C         141.2431  144.0435  162.1250 C.ar    1  UNL1        0.1343
     12 H         144.0622  142.4588  160.8244 H       1  UNL1        0.1424
     13 H         143.4466  142.3758  162.4125 H       1  UNL1        0.1424
     14 C         141.3329  143.5182  163.5272 C.1     1  UNL1        0.1064
     15 N         141.4225  142.9929  164.9293 N.1     1  UNL1       -0.1906
     16 O         139.0985  145.3664  162.7578 O.3     1  UNL1       -0.4597
     17 C         137.7646  143.9423  164.4732 C.3     1  UNL1        0.0512
     18 C         137.9580  144.4446  163.0731 C.3     1  UNL1        0.2073
     19 C         139.5659  146.1508  155.8008 C.3     1  UNL1        0.1166
     20 C         139.3853  147.6204  155.5605 C.ar    1  UNL1       -0.0025
     21 C         138.6390  148.4571  156.5569 C.ar    1  UNL1       -0.0013
     22 C         138.4584  149.9267  156.3167 C.ar    1  UNL1        0.0181
     23 C         139.0241  150.5595  155.0800 C.ar    1  UNL1        0.1057
     24 C         139.7705  149.7228  154.0835 C.ar    1  UNL1        0.0181
     25 C         139.9511  148.2532  154.3238 C.ar    1  UNL1       -0.0013
     26 S         138.8435  152.0291  154.8397 S.O2    1  UNL1        0.0104
     27 C         138.6629  153.4987  154.5995 C.3     1  UNL1        0.1816
     28 O         138.7274  151.7739  153.3662 O.2     1  UNL1       -0.1686
     29 O         138.9596  152.2843  156.3133 O.2     1  UNL1       -0.1686
@<TRIPOS>BOND
     1    17    18    1
     2    18    16    1
     3    16     5    1
     4     5     6   ar
     5     6     7   ar
     6     7     1    1
     7     1     2    2
     8     1     3   am
     9     3    19    1
    10    19    20    1
    11    20    21   ar
    12    21    22   ar
    13    22    23   ar
    14    23    26    1
    15    26    27    1
    16    26    28    2
    17    26    29    2
    18    23    24   ar
    19    24    25   ar
    20     7     8   ar
    21     8     9   ar
    22     9    10    1
    23     9    11   ar
    24    11    14    1
    25    14    15    3
    26    11     5   ar
    27    25    20   ar
    28     3     4    1
    29    10    12    1
    30    10    13    1
