@<TRIPOS>MOLECULE
*****
 31 34 0 0 0
SMALL
GASTEIGER

@<TRIPOS>ATOM
      1 C         140.9186  141.3675  167.7285 C.3     1  UNL1        0.0689
      2 C         142.0761  142.1478  168.2772 C.3     1  UNL1        0.0485
      3 C         142.6272  141.8188  169.6329 C.3     1  UNL1        0.1436
      4 O         142.0206  140.7094  170.4400 O.3     1  UNL1       -0.3537
      5 C         140.8630  139.9291  169.8913 C.3     1  UNL1        0.1436
      6 C         140.3120  140.2581  168.5356 C.3     1  UNL1        0.0485
      7 N         141.1511  142.3209  166.5940 N.3     1  UNL1       -0.2710
      8 C         139.9927  143.0411  165.9700 C.3     1  UNL1        0.0897
      9 C         140.2253  143.9944  164.8356 C.3     1  UNL1        0.0899
     10 N         141.6164  144.2275  164.3251 N.3     1  UNL1       -0.2665
     11 C         142.7748  143.5074  164.9490 C.3     1  UNL1        0.0899
     12 C         142.5422  142.5540  166.0834 C.3     1  UNL1        0.0897
     13 C         141.8489  145.1809  163.1905 C.3     1  UNL1        0.0992
     14 C         141.5914  144.7439  161.7789 C.ar    1  UNL1       -0.0061
     15 C         142.3998  143.6320  161.1787 C.ar    1  UNL1       -0.0029
     16 C         142.1422  143.1951  159.7670 C.ar    1  UNL1       -0.0003
     17 C         141.0764  143.8700  158.9556 C.ar    1  UNL1       -0.0000
     18 C         140.2681  144.9819  159.5558 C.ar    1  UNL1       -0.0003
     19 C         140.5256  145.4189  160.9674 C.ar    1  UNL1       -0.0029
     20 C         139.8417  140.9183  166.7858 C.3     1  UNL1        0.1129
     21 C         138.9670  138.7244  165.7034 C.2     1  UNL1        0.2294
     22 O         137.6437  138.9167  166.3831 O.2     1  UNL1       -0.2745
     23 N         140.0660  139.7252  165.9048 N.am    1  UNL1       -0.2573
     24 C         141.3893  139.5328  165.2251 C.ar    1  UNL1        0.0539
     25 C         142.5051  138.8313  165.9411 C.ar    1  UNL1        0.0149
     26 C         143.8285  138.6389  165.2614 C.ar    1  UNL1        0.0013
     27 C         144.0358  139.1481  163.8658 C.ar    1  UNL1        0.0001
     28 C         142.9199  139.8497  163.1499 C.ar    1  UNL1        0.0013
     29 C         141.5966  140.0420  163.8295 C.ar    1  UNL1        0.0149
     30 C         138.8540  137.6028  163.3626 C.3     1  UNL1        0.0101
     31 C         139.1911  137.5312  164.8225 C.3     1  UNL1        0.0856
@<TRIPOS>BOND
     1    30    31    1
     2    31    21    1
     3    21    22    2
     4    21    23   am
     5    23    20    1
     6    20     1    1
     7     1     7    1
     8     7     8    1
     9     8     9    1
    10     9    10    1
    11    10    13    1
    12    13    14    1
    13    14    15   ar
    14    15    16   ar
    15    16    17   ar
    16    17    18   ar
    17    18    19   ar
    18    10    11    1
    19    11    12    1
    20     1     2    1
    21     2     3    1
    22     3     4    1
    23     4     5    1
    24     5     6    1
    25    23    24    1
    26    24    25   ar
    27    25    26   ar
    28    26    27   ar
    29    27    28   ar
    30    28    29   ar
    31     6     1    1
    32    29    24   ar
    33    12     7    1
    34    19    14   ar
@<TRIPOS>MOLECULE
*****
 31 34 0 0 0
SMALL
GASTEIGER

@<TRIPOS>ATOM
      1 C         139.8529  139.8052  162.3653 C.3     1  UNL1        0.0689
      2 C         138.6417  139.0102  162.7539 C.3     1  UNL1        0.0485
      3 C         137.7248  138.4742  161.6946 C.3     1  UNL1        0.1436
      4 O         138.0191  138.7333  160.2467 O.3     1  UNL1       -0.3537
      5 C         139.2302  139.5283  159.8581 C.3     1  UNL1        0.1436
      6 C         140.1472  140.0643  160.9174 C.3     1  UNL1        0.0485
      7 N         139.9966  139.8246  163.8583 N.3     1  UNL1       -0.2710
      8 C         141.3340  139.5663  164.4864 C.3     1  UNL1        0.0897
      9 C         141.4776  139.5857  165.9794 C.3     1  UNL1        0.0899
     10 N         140.2839  139.8634  166.8442 N.3     1  UNL1       -0.2665
     11 C         138.9465  140.1217  166.2161 C.3     1  UNL1        0.0899
     12 C         138.8028  140.1023  164.7231 C.3     1  UNL1        0.0897
     13 C         140.4276  139.8828  168.3372 C.3     1  UNL1        0.0992
     14 C         141.1612  141.0076  169.0055 C.ar    1  UNL1       -0.0061
     15 C         142.6219  140.8698  169.3173 C.ar    1  UNL1       -0.0029
     16 C         143.3555  141.9947  169.9856 C.ar    1  UNL1       -0.0003
     17 C         142.6283  143.2572  170.3422 C.ar    1  UNL1       -0.0000
     18 C         141.1675  143.3950  170.0304 C.ar    1  UNL1       -0.0003
     19 C         140.4340  142.2702  169.3621 C.ar    1  UNL1       -0.0029
     20 C         141.1140  140.6070  162.4952 C.3     1  UNL1        0.1129
     21 C         142.0201  142.8250  161.4907 C.2     1  UNL1        0.2294
     22 O         143.0232  142.0514  160.6874 O.2     1  UNL1       -0.2745
     23 N         141.0654  142.1028  162.3946 N.am    1  UNL1       -0.2573
     24 C         140.0623  142.8764  163.1978 C.ar    1  UNL1        0.0539
     25 C         140.3933  143.3084  164.5956 C.ar    1  UNL1        0.0149
     26 C         139.3901  144.0821  165.3988 C.ar    1  UNL1        0.0013
     27 C         138.0560  144.4236  164.8043 C.ar    1  UNL1        0.0001
     28 C         137.7251  143.9915  163.4065 C.ar    1  UNL1        0.0013
     29 C         138.7282  143.2179  162.6033 C.ar    1  UNL1        0.0149
     30 C         141.1006  144.9754  160.3589 C.3     1  UNL1        0.0101
     31 C         141.9716  144.3208  161.3899 C.3     1  UNL1        0.0856
@<TRIPOS>BOND
     1    30    31    1
     2    31    21    1
     3    21    22    2
     4    21    23   am
     5    23    20    1
     6    20     1    1
     7     1     7    1
     8     7     8    1
     9     8     9    1
    10     9    10    1
    11    10    13    1
    12    13    14    1
    13    14    15   ar
    14    15    16   ar
    15    16    17   ar
    16    17    18   ar
    17    18    19   ar
    18    10    11    1
    19    11    12    1
    20     1     2    1
    21     2     3    1
    22     3     4    1
    23     4     5    1
    24     5     6    1
    25    23    24    1
    26    24    25   ar
    27    25    26   ar
    28    26    27   ar
    29    27    28   ar
    30    28    29   ar
    31     6     1    1
    32    29    24   ar
    33    12     7    1
    34    19    14   ar
@<TRIPOS>MOLECULE
*****
 31 34 0 0 0
SMALL
GASTEIGER

@<TRIPOS>ATOM
      1 C         140.1201  140.0450  162.2802 C.3     1  UNL1        0.0689
      2 C         139.2035  139.0196  162.8789 C.3     1  UNL1        0.0485
      3 C         138.0242  138.5206  162.0977 C.3     1  UNL1        0.1436
      4 O         137.7616  139.0470  160.7178 O.3     1  UNL1       -0.3537
      5 C         138.6782  140.0723  160.1192 C.3     1  UNL1        0.1436
      6 C         139.8575  140.5714  160.9004 C.3     1  UNL1        0.0485
      7 N         140.7808  139.8514  163.6130 N.3     1  UNL1       -0.2710
      8 C         139.9715  139.9468  164.8722 C.3     1  UNL1        0.0897
      9 C         140.6322  139.7532  166.2048 C.3     1  UNL1        0.0899
     10 N         142.1023  139.4642  166.2782 N.3     1  UNL1       -0.2665
     11 C         142.9116  139.3689  165.0189 C.3     1  UNL1        0.0899
     12 C         142.2509  139.5624  163.6863 C.3     1  UNL1        0.0897
     13 C         142.7630  139.2707  167.6109 C.3     1  UNL1        0.0992
     14 C         142.4925  140.2332  168.7290 C.ar    1  UNL1       -0.0061
     15 C         141.6740  139.8009  169.9094 C.ar    1  UNL1       -0.0029
     16 C         141.4035  140.7635  171.0275 C.ar    1  UNL1       -0.0003
     17 C         141.9514  142.1585  170.9653 C.ar    1  UNL1       -0.0000
     18 C         142.7698  142.5908  169.7849 C.ar    1  UNL1       -0.0003
     19 C         143.0404  141.6283  168.6668 C.ar    1  UNL1       -0.0029
     20 C         141.2662  141.0032  162.1444 C.3     1  UNL1        0.1129
     21 C         141.7182  143.3120  161.0423 C.2     1  UNL1        0.2294
     22 O         142.6919  142.6709  160.0984 O.2     1  UNL1       -0.2745
     23 N         141.0053  142.4781  162.0653 N.am    1  UNL1       -0.2573
     24 C         140.0316  143.1193  163.0091 C.ar    1  UNL1        0.0539
     25 C         138.6271  143.3983  162.5624 C.ar    1  UNL1        0.0149
     26 C         137.6533  144.0395  163.5063 C.ar    1  UNL1        0.0013
     27 C         138.0842  144.4015  164.8967 C.ar    1  UNL1        0.0001
     28 C         139.4886  144.1225  165.3433 C.ar    1  UNL1        0.0013
     29 C         140.4624  143.4814  164.3995 C.ar    1  UNL1        0.0149
     30 C         140.5149  145.3276  159.9289 C.3     1  UNL1        0.0101
     31 C         141.4573  144.7870  160.9631 C.3     1  UNL1        0.0856
@<TRIPOS>BOND
     1    30    31    1
     2    31    21    1
     3    21    22    2
     4    21    23   am
     5    23    20    1
     6    20     1    1
     7     1     7    1
     8     7     8    1
     9     8     9    1
    10     9    10    1
    11    10    13    1
    12    13    14    1
    13    14    15   ar
    14    15    16   ar
    15    16    17   ar
    16    17    18   ar
    17    18    19   ar
    18    10    11    1
    19    11    12    1
    20     1     2    1
    21     2     3    1
    22     3     4    1
    23     4     5    1
    24     5     6    1
    25    23    24    1
    26    24    25   ar
    27    25    26   ar
    28    26    27   ar
    29    27    28   ar
    30    28    29   ar
    31     6     1    1
    32    29    24   ar
    33    12     7    1
    34    19    14   ar
@<TRIPOS>MOLECULE
*****
 31 34 0 0 0
SMALL
GASTEIGER

@<TRIPOS>ATOM
      1 C         141.4569  141.4980  167.7755 C.3     1  UNL1        0.0689
      2 C         140.6986  142.6984  168.2591 C.3     1  UNL1        0.0485
      3 C         141.1132  143.3873  169.5254 C.3     1  UNL1        0.1436
      4 O         142.2862  142.8757  170.3080 O.3     1  UNL1       -0.3537
      5 C         143.0445  141.6754  169.8244 C.3     1  UNL1        0.1436
      6 C         142.6299  140.9865  168.5581 C.3     1  UNL1        0.0485
      7 N         140.4226  141.6056  166.6944 N.3     1  UNL1       -0.2710
      8 C         140.0800  142.9460  166.1149 C.3     1  UNL1        0.0897
      9 C         139.0456  143.0535  165.0340 C.3     1  UNL1        0.0899
     10 N         138.3539  141.8206  164.5325 N.3     1  UNL1       -0.2665
     11 C         138.6965  140.4802  165.1120 C.3     1  UNL1        0.0899
     12 C         139.7308  140.3727  166.1930 C.3     1  UNL1        0.0897
     13 C         137.3195  141.9282  163.4515 C.3     1  UNL1        0.0992
     14 C         137.6913  141.6429  162.0266 C.ar    1  UNL1       -0.0061
     15 C         138.2558  142.7339  161.1659 C.ar    1  UNL1       -0.0029
     16 C         138.6276  142.4485  159.7409 C.ar    1  UNL1       -0.0003
     17 C         138.4349  141.0721  159.1768 C.ar    1  UNL1       -0.0000
     18 C         137.8704  139.9810  160.0375 C.ar    1  UNL1       -0.0003
     19 C         137.4986  140.2664  161.4624 C.ar    1  UNL1       -0.0029
     20 C         141.8561  140.3349  166.9163 C.3     1  UNL1        0.1129
     21 C         143.8154  139.3273  165.5396 C.2     1  UNL1        0.2294
     22 O         143.5997  137.9999  166.2042 O.2     1  UNL1       -0.2745
     23 N         142.9436  140.4948  165.8957 N.am    1  UNL1       -0.2573
     24 C         143.1593  141.8221  165.2311 C.ar    1  UNL1        0.0539
     25 C         144.0623  142.8394  165.8633 C.ar    1  UNL1        0.0149
     26 C         144.2780  144.1668  165.1987 C.ar    1  UNL1        0.0013
     27 C         143.5907  144.4767  163.9020 C.ar    1  UNL1        0.0001
     28 C         142.6876  143.4594  163.2699 C.ar    1  UNL1        0.0013
     29 C         142.4719  142.1321  163.9344 C.ar    1  UNL1        0.0149
     30 C         144.6008  139.2875  163.0634 C.3     1  UNL1        0.0101
     31 C         144.9030  139.4870  164.5190 C.3     1  UNL1        0.0856
@<TRIPOS>BOND
     1    30    31    1
     2    31    21    1
     3    21    22    2
     4    21    23   am
     5    23    20    1
     6    20     1    1
     7     1     7    1
     8     7     8    1
     9     8     9    1
    10     9    10    1
    11    10    13    1
    12    13    14    1
    13    14    15   ar
    14    15    16   ar
    15    16    17   ar
    16    17    18   ar
    17    18    19   ar
    18    10    11    1
    19    11    12    1
    20     1     2    1
    21     2     3    1
    22     3     4    1
    23     4     5    1
    24     5     6    1
    25    23    24    1
    26    24    25   ar
    27    25    26   ar
    28    26    27   ar
    29    27    28   ar
    30    28    29   ar
    31     6     1    1
    32    29    24   ar
    33    12     7    1
    34    19    14   ar
@<TRIPOS>MOLECULE
*****
 31 34 0 0 0
SMALL
GASTEIGER

@<TRIPOS>ATOM
      1 C         141.0580  140.9929  166.9474 C.3     1  UNL1        0.0689
      2 C         139.8500  140.4361  167.6406 C.3     1  UNL1        0.0485
      3 C         139.6500  140.6762  169.1077 C.3     1  UNL1        0.1436
      4 O         140.6580  141.4732  169.8815 O.3     1  UNL1       -0.3537
      5 C         141.8660  142.0300  169.1883 C.3     1  UNL1        0.1436
      6 C         142.0660  141.7899  167.7212 C.3     1  UNL1        0.0485
      7 N         140.3888  140.3066  165.7936 N.3     1  UNL1       -0.2710
      8 C         138.9130  140.4669  165.5791 C.3     1  UNL1        0.0897
      9 C         138.2439  139.7805  164.4253 C.3     1  UNL1        0.0899
     10 N         139.0507  138.9339  163.4860 N.3     1  UNL1       -0.2665
     11 C         140.5266  138.7736  163.7005 C.3     1  UNL1        0.0899
     12 C         141.1956  139.4599  164.8543 C.3     1  UNL1        0.0897
     13 C         138.3815  138.2475  162.3322 C.3     1  UNL1        0.0992
     14 C         138.5560  138.7783  160.9402 C.ar    1  UNL1       -0.0061
     15 C         139.5946  138.1842  160.0356 C.ar    1  UNL1       -0.0029
     16 C         139.7690  138.7151  158.6435 C.ar    1  UNL1       -0.0003
     17 C         138.9049  139.8401  158.1561 C.ar    1  UNL1       -0.0000
     18 C         137.8663  140.4342  159.0607 C.ar    1  UNL1       -0.0003
     19 C         137.6918  139.9034  160.4527 C.ar    1  UNL1       -0.0029
     20 C         142.0337  141.3114  165.8534 C.3     1  UNL1        0.1129
     21 C         143.2157  143.4230  164.9080 C.2     1  UNL1        0.2294
     22 O         144.5383  142.8920  165.3755 O.2     1  UNL1       -0.2745
     23 N         141.9634  142.6327  165.1470 N.am    1  UNL1       -0.2573
     24 C         140.6407  143.1638  164.6794 C.ar    1  UNL1        0.0539
     25 C         140.1480  142.8406  163.3000 C.ar    1  UNL1        0.0149
     26 C         138.8253  143.3717  162.8325 C.ar    1  UNL1        0.0013
     27 C         137.9954  144.2259  163.7444 C.ar    1  UNL1        0.0001
     28 C         138.4882  144.5491  165.1238 C.ar    1  UNL1        0.0013
     29 C         139.8108  144.0180  165.5913 C.ar    1  UNL1        0.0149
     30 C         143.3214  144.8096  162.7133 C.3     1  UNL1        0.0101
     31 C         143.1454  144.7444  164.2016 C.3     1  UNL1        0.0856
@<TRIPOS>BOND
     1    30    31    1
     2    31    21    1
     3    21    22    2
     4    21    23   am
     5    23    20    1
     6    20     1    1
     7     1     7    1
     8     7     8    1
     9     8     9    1
    10     9    10    1
    11    10    13    1
    12    13    14    1
    13    14    15   ar
    14    15    16   ar
    15    16    17   ar
    16    17    18   ar
    17    18    19   ar
    18    10    11    1
    19    11    12    1
    20     1     2    1
    21     2     3    1
    22     3     4    1
    23     4     5    1
    24     5     6    1
    25    23    24    1
    26    24    25   ar
    27    25    26   ar
    28    26    27   ar
    29    27    28   ar
    30    28    29   ar
    31     6     1    1
    32    29    24   ar
    33    12     7    1
    34    19    14   ar
@<TRIPOS>MOLECULE
*****
 31 34 0 0 0
SMALL
GASTEIGER

@<TRIPOS>ATOM
      1 C         140.5208  140.0187  161.9896 C.3     1  UNL1        0.0689
      2 C         141.3308  138.7806  162.2364 C.3     1  UNL1        0.0485
      3 C         141.8621  137.9888  161.0784 C.3     1  UNL1        0.1436
      4 O         141.5833  138.4351  159.6737 O.3     1  UNL1       -0.3537
      5 C         140.7733  139.6732  159.4270 C.3     1  UNL1        0.1436
      6 C         140.2420  140.4650  160.5849 C.3     1  UNL1        0.0485
      7 N         140.5178  140.0001  163.4895 N.3     1  UNL1       -0.2710
      8 C         141.7934  139.7529  164.2390 C.3     1  UNL1        0.0897
      9 C         141.7904  139.7343  165.7389 C.3     1  UNL1        0.0899
     10 N         140.5118  139.9630  166.4892 N.3     1  UNL1       -0.2665
     11 C         139.2363  140.2102  165.7398 C.3     1  UNL1        0.0899
     12 C         139.2393  140.2288  164.2399 C.3     1  UNL1        0.0897
     13 C         140.5089  139.9445  167.9892 C.3     1  UNL1        0.0992
     14 C         141.2615  140.9928  168.7537 C.ar    1  UNL1       -0.0061
     15 C         142.6932  140.7595  169.1358 C.ar    1  UNL1       -0.0029
     16 C         143.4458  141.8079  169.9003 C.ar    1  UNL1       -0.0003
     17 C         142.7668  143.0895  170.2827 C.ar    1  UNL1       -0.0000
     18 C         141.3352  143.3228  169.9006 C.ar    1  UNL1       -0.0003
     19 C         140.5825  142.2745  169.1361 C.ar    1  UNL1       -0.0029
     20 C         139.7097  141.2504  162.2638 C.3     1  UNL1        0.1129
     21 C         139.5090  143.6146  161.2055 C.2     1  UNL1        0.2294
     22 O         138.1455  143.2663  160.6861 O.2     1  UNL1       -0.2745
     23 N         140.2910  142.6066  161.9943 N.am    1  UNL1       -0.2573
     24 C         141.6545  142.9548  162.5137 C.ar    1  UNL1        0.0539
     25 C         142.8541  142.8155  161.6239 C.ar    1  UNL1        0.0149
     26 C         144.2175  143.1637  162.1433 C.ar    1  UNL1        0.0013
     27 C         144.3814  143.6513  163.5523 C.ar    1  UNL1        0.0001
     28 C         143.1818  143.7906  164.4420 C.ar    1  UNL1        0.0013
     29 C         141.8183  143.4424  163.9227 C.ar    1  UNL1        0.0149
     30 C         139.7827  146.1150  161.8559 C.3     1  UNL1        0.0101
     31 C         140.0903  144.9708  160.9360 C.3     1  UNL1        0.0856
@<TRIPOS>BOND
     1    30    31    1
     2    31    21    1
     3    21    22    2
     4    21    23   am
     5    23    20    1
     6    20     1    1
     7     1     7    1
     8     7     8    1
     9     8     9    1
    10     9    10    1
    11    10    13    1
    12    13    14    1
    13    14    15   ar
    14    15    16   ar
    15    16    17   ar
    16    17    18   ar
    17    18    19   ar
    18    10    11    1
    19    11    12    1
    20     1     2    1
    21     2     3    1
    22     3     4    1
    23     4     5    1
    24     5     6    1
    25    23    24    1
    26    24    25   ar
    27    25    26   ar
    28    26    27   ar
    29    27    28   ar
    30    28    29   ar
    31     6     1    1
    32    29    24   ar
    33    12     7    1
    34    19    14   ar
@<TRIPOS>MOLECULE
*****
 31 34 0 0 0
SMALL
GASTEIGER

@<TRIPOS>ATOM
      1 C         143.1619  140.4414  161.7985 C.3     1  UNL1        0.0689
      2 C         143.3179  138.9607  161.9805 C.3     1  UNL1        0.0485
      3 C         143.5575  138.0799  160.7902 C.3     1  UNL1        0.1436
      4 O         143.6410  138.6799  159.4179 O.3     1  UNL1       -0.3537
      5 C         143.4850  140.1606  159.2360 C.3     1  UNL1        0.1436
      6 C         143.2455  141.0414  160.4263 C.3     1  UNL1        0.0485
      7 N         143.0053  140.3440  163.2872 N.3     1  UNL1       -0.2710
      8 C         143.6805  141.3430  164.1794 C.3     1  UNL1        0.0897
      9 C         143.5238  141.2456  165.6679 C.3     1  UNL1        0.0899
     10 N         142.6920  140.1490  166.2644 N.3     1  UNL1       -0.2665
     11 C         142.0169  139.1500  165.3722 C.3     1  UNL1        0.0899
     12 C         142.1735  139.2474  163.8836 C.3     1  UNL1        0.0897
     13 C         142.5354  140.0516  167.7530 C.3     1  UNL1        0.0992
     14 C         142.1439  141.2626  168.5468 C.ar    1  UNL1       -0.0061
     15 C         143.0553  141.7840  169.6181 C.ar    1  UNL1       -0.0029
     16 C         142.6638  142.9951  170.4119 C.ar    1  UNL1       -0.0003
     17 C         141.3609  143.6847  170.1345 C.ar    1  UNL1       -0.0000
     18 C         140.4496  143.1633  169.0632 C.ar    1  UNL1       -0.0003
     19 C         140.8411  141.9523  168.2694 C.ar    1  UNL1       -0.0029
     20 C         142.9515  141.8883  162.1336 C.3     1  UNL1        0.1129
     21 C         141.4643  143.7834  161.1607 C.2     1  UNL1        0.2294
     22 O         142.6788  144.4295  160.5627 O.2     1  UNL1       -0.2745
     23 N         141.6007  142.5128  161.9461 N.am    1  UNL1       -0.2573
     24 C         140.3862  141.8667  162.5441 C.ar    1  UNL1        0.0539
     25 C         139.5719  140.9042  161.7315 C.ar    1  UNL1        0.0149
     26 C         138.3573  140.2580  162.3294 C.ar    1  UNL1        0.0013
     27 C         137.9572  140.5745  163.7400 C.ar    1  UNL1        0.0001
     28 C         138.7716  141.5370  164.5526 C.ar    1  UNL1        0.0013
     29 C         139.9861  142.1832  163.9547 C.ar    1  UNL1        0.0149
     30 C         139.6362  145.4634  161.9263 C.3     1  UNL1        0.0101
     31 C         140.1135  144.4080  160.9732 C.3     1  UNL1        0.0856
@<TRIPOS>BOND
     1    30    31    1
     2    31    21    1
     3    21    22    2
     4    21    23   am
     5    23    20    1
     6    20     1    1
     7     1     7    1
     8     7     8    1
     9     8     9    1
    10     9    10    1
    11    10    13    1
    12    13    14    1
    13    14    15   ar
    14    15    16   ar
    15    16    17   ar
    16    17    18   ar
    17    18    19   ar
    18    10    11    1
    19    11    12    1
    20     1     2    1
    21     2     3    1
    22     3     4    1
    23     4     5    1
    24     5     6    1
    25    23    24    1
    26    24    25   ar
    27    25    26   ar
    28    26    27   ar
    29    27    28   ar
    30    28    29   ar
    31     6     1    1
    32    29    24   ar
    33    12     7    1
    34    19    14   ar
@<TRIPOS>MOLECULE
*****
 31 34 0 0 0
SMALL
GASTEIGER

@<TRIPOS>ATOM
      1 C         141.6861  141.6616  167.3925 C.3     1  UNL1        0.0689
      2 C         142.4819  140.6333  168.1404 C.3     1  UNL1        0.0485
      3 C         142.3430  140.5146  169.6292 C.3     1  UNL1        0.1436
      4 O         141.4083  141.4243  170.3701 O.3     1  UNL1       -0.3537
      5 C         140.6125  142.4525  169.6223 C.3     1  UNL1        0.1436
      6 C         140.7514  142.5712  168.1334 C.3     1  UNL1        0.0485
      7 N         142.4347  141.0333  166.2545 N.3     1  UNL1       -0.2710
      8 C         143.0117  141.8942  165.1702 C.3     1  UNL1        0.0897
      9 C         143.7603  141.2659  164.0323 C.3     1  UNL1        0.0899
     10 N         143.9319  139.7767  163.9787 N.3     1  UNL1       -0.2665
     11 C         143.3549  138.9158  165.0631 C.3     1  UNL1        0.0899
     12 C         142.6063  139.5441  166.2010 C.3     1  UNL1        0.0897
     13 C         144.6805  139.1484  162.8408 C.3     1  UNL1        0.0992
     14 C         144.0483  139.0633  161.4832 C.ar    1  UNL1       -0.0061
     15 C         144.0176  140.2703  160.5931 C.ar    1  UNL1       -0.0029
     16 C         143.3853  140.1852  159.2355 C.ar    1  UNL1       -0.0003
     17 C         142.7838  138.8931  158.7680 C.ar    1  UNL1       -0.0000
     18 C         142.8145  137.6861  159.6581 C.ar    1  UNL1       -0.0003
     19 C         143.4467  137.7712  161.0157 C.ar    1  UNL1       -0.0029
     20 C         141.1503  142.4716  166.2494 C.3     1  UNL1        0.1129
     21 C         138.9275  143.1828  165.1078 C.2     1  UNL1        0.2294
     22 O         139.3304  144.6233  165.2206 O.2     1  UNL1       -0.2745
     23 N         139.8374  142.1070  165.6222 N.am    1  UNL1       -0.2573
     24 C         139.4345  140.6665  165.5093 C.ar    1  UNL1        0.0539
     25 C         138.6890  140.0062  166.6310 C.ar    1  UNL1        0.0149
     26 C         138.2861  138.5657  166.5182 C.ar    1  UNL1        0.0013
     27 C         138.6287  137.7856  165.2837 C.ar    1  UNL1        0.0001
     28 C         139.3743  138.4459  164.1621 C.ar    1  UNL1        0.0013
     29 C         139.7772  139.8864  164.2748 C.ar    1  UNL1        0.0149
     30 C         137.5284  142.5884  163.0008 C.3     1  UNL1        0.0101
     31 C         137.6146  142.8182  164.4806 C.3     1  UNL1        0.0856
@<TRIPOS>BOND
     1    30    31    1
     2    31    21    1
     3    21    22    2
     4    21    23   am
     5    23    20    1
     6    20     1    1
     7     1     7    1
     8     7     8    1
     9     8     9    1
    10     9    10    1
    11    10    13    1
    12    13    14    1
    13    14    15   ar
    14    15    16   ar
    15    16    17   ar
    16    17    18   ar
    17    18    19   ar
    18    10    11    1
    19    11    12    1
    20     1     2    1
    21     2     3    1
    22     3     4    1
    23     4     5    1
    24     5     6    1
    25    23    24    1
    26    24    25   ar
    27    25    26   ar
    28    26    27   ar
    29    27    28   ar
    30    28    29   ar
    31     6     1    1
    32    29    24   ar
    33    12     7    1
    34    19    14   ar
@<TRIPOS>MOLECULE
*****
 31 34 0 0 0
SMALL
GASTEIGER

@<TRIPOS>ATOM
      1 C         142.9150  140.5503  161.8211 C.3     1  UNL1        0.0689
      2 C         143.7036  139.2746  161.8480 C.3     1  UNL1        0.0485
      3 C         144.2327  138.6929  160.5706 C.3     1  UNL1        0.1436
      4 O         143.9731  139.3869  159.2663 O.3     1  UNL1       -0.3537
      5 C         143.1845  140.6625  159.2395 C.3     1  UNL1        0.1436
      6 C         142.6554  141.2443  160.5168 C.3     1  UNL1        0.0485
      7 N         142.8987  140.2649  163.2937 N.3     1  UNL1       -0.2710
      8 C         143.0670  141.3853  164.2766 C.3     1  UNL1        0.0897
      9 C         143.0506  141.0999  165.7491 C.3     1  UNL1        0.0899
     10 N         142.8660  139.6941  166.2386 N.3     1  UNL1       -0.2665
     11 C         142.6976  138.5737  165.2557 C.3     1  UNL1        0.0899
     12 C         142.7140  138.8591  163.7832 C.3     1  UNL1        0.0897
     13 C         142.8496  139.4088  167.7112 C.3     1  UNL1        0.0992
     14 C         141.6302  139.7293  168.5238 C.ar    1  UNL1       -0.0061
     15 C         140.2926  139.8456  167.8550 C.ar    1  UNL1       -0.0029
     16 C         139.0732  140.1661  168.6677 C.ar    1  UNL1       -0.0003
     17 C         139.1914  140.3703  170.1490 C.ar    1  UNL1       -0.0000
     18 C         140.5290  140.2539  170.8177 C.ar    1  UNL1       -0.0003
     19 C         141.7484  139.9335  170.0052 C.ar    1  UNL1       -0.0029
     20 C         142.1207  141.7269  162.3057 C.3     1  UNL1        0.1129
     21 C         139.8745  142.9794  161.9373 C.2     1  UNL1        0.2294
     22 O         140.6227  144.2661  161.7508 O.2     1  UNL1       -0.2745
     23 N         140.6236  141.7098  162.2147 N.am    1  UNL1       -0.2573
     24 C         139.8755  140.4231  162.4013 C.ar    1  UNL1        0.0539
     25 C         139.5693  139.5551  161.2168 C.ar    1  UNL1        0.0149
     26 C         138.8212  138.2684  161.4033 C.ar    1  UNL1        0.0013
     27 C         138.3792  137.8498  162.7743 C.ar    1  UNL1        0.0001
     28 C         138.6854  138.7178  163.9586 C.ar    1  UNL1        0.0013
     29 C         139.4335  140.0045  163.7722 C.ar    1  UNL1        0.0149
     30 C         137.5486  143.1838  163.0768 C.3     1  UNL1        0.0101
     31 C         138.3774  142.9625  161.8463 C.3     1  UNL1        0.0856
@<TRIPOS>BOND
     1    30    31    1
     2    31    21    1
     3    21    22    2
     4    21    23   am
     5    23    20    1
     6    20     1    1
     7     1     7    1
     8     7     8    1
     9     8     9    1
    10     9    10    1
    11    10    13    1
    12    13    14    1
    13    14    15   ar
    14    15    16   ar
    15    16    17   ar
    16    17    18   ar
    17    18    19   ar
    18    10    11    1
    19    11    12    1
    20     1     2    1
    21     2     3    1
    22     3     4    1
    23     4     5    1
    24     5     6    1
    25    23    24    1
    26    24    25   ar
    27    25    26   ar
    28    26    27   ar
    29    27    28   ar
    30    28    29   ar
    31     6     1    1
    32    29    24   ar
    33    12     7    1
    34    19    14   ar
