@<TRIPOS>MOLECULE
*****
 37 41 0 0 0
SMALL
GASTEIGER

@<TRIPOS>ATOM
      1 C         141.7677  138.9566  160.1882 C.3     1  UNL1        0.0758
      2 C         142.3379  138.0878  161.2698 C.3     1  UNL1        0.0370
      3 C         141.4625  137.6167  162.3930 C.3     1  UNL1        0.0741
      4 N         140.0167  138.0143  162.4345 N.3     1  UNL1       -0.2688
      5 C         139.4465  138.8831  161.3528 C.3     1  UNL1        0.0741
      6 C         140.3219  139.3542  160.2297 C.3     1  UNL1        0.0370
      7 O         142.0704  137.2812  157.7180 O.2     1  UNL1       -0.2526
      8 C         142.7945  138.5900  157.8299 C.2     1  UNL1        0.3041
      9 N         142.6432  139.4277  159.0649 N.am    1  UNL1       -0.2903
     10 N         143.6700  139.0612  156.7067 N.am    1  UNL1       -0.2621
     11 C         144.4521  140.3408  156.6757 C.3     1  UNL1        0.0953
     12 C         145.1826  140.4059  155.3671 C.3     1  UNL1        0.0236
     13 C         144.8519  139.1666  154.5894 C.3     1  UNL1        0.0262
     14 C         143.9170  138.3355  155.4174 C.3     1  UNL1        0.1009
     15 H         143.1185  140.2868  159.1383 H       1  UNL1        0.1509
     16 C         143.3320  137.0113  155.0249 C.ar    1  UNL1        0.0150
     17 C         143.9723  135.7392  155.4960 C.ar    1  UNL1        0.0005
     18 C         143.3871  134.4150  155.1035 C.ar    1  UNL1        0.0204
     19 C         142.1617  134.3628  154.2399 C.ar    1  UNL1        0.0989
     20 N         141.5214  135.6348  153.7689 N.ar    1  UNL1       -0.2426
     21 C         142.1065  136.9590  154.1614 C.ar    1  UNL1        0.0962
     22 C         139.1412  137.5432  163.5577 C.3     1  UNL1        0.1007
     23 C         139.1763  138.2470  164.8819 C.ar    1  UNL1        0.0129
     24 C         138.0909  138.2324  165.9171 C.ar    1  UNL1        0.0176
     25 C         138.5466  139.0654  167.0783 C.ar    1  UNL1        0.0799
     26 N         139.9137  139.5948  166.7608 N.ar    1  UNL1       -0.3038
     27 C         140.3028  139.0890  165.4033 C.ar    1  UNL1        0.0772
     28 C         140.7456  140.4754  167.6454 C.ar    1  UNL1        0.0640
     29 C         141.9894  139.9346  168.2858 C.ar    1  UNL1        0.0175
     30 C         142.8213  140.8151  169.1704 C.ar    1  UNL1        0.0053
     31 C         142.4093  142.2366  169.4146 C.ar    1  UNL1        0.0715
     32 C         141.1655  142.7775  168.7741 C.ar    1  UNL1        0.0053
     33 C         140.3336  141.8969  167.8895 C.ar    1  UNL1        0.0175
     34 C         143.2412  143.1172  170.2992 C.3     1  UNL1        0.4186
     35 F         144.0730  143.9978  171.1838 F       1  UNL1       -0.1659
     36 F         144.4457  142.2722  170.0075 F       1  UNL1       -0.1659
     37 F         142.0366  143.9622  170.5909 F       1  UNL1       -0.1659
@<TRIPOS>BOND
     1     7     8    2
     2     8     9   am
     3     9     1    1
     4     1     2    1
     5     2     3    1
     6     3     4    1
     7     4    22    1
     8    22    23    1
     9    23    24   ar
    10    24    25   ar
    11    25    26   ar
    12    26    28    1
    13    28    29   ar
    14    29    30   ar
    15    30    31   ar
    16    31    34    1
    17    34    35    1
    18    34    36    1
    19    34    37    1
    20    31    32   ar
    21    32    33   ar
    22    26    27   ar
    23     4     5    1
    24     5     6    1
    25     8    10   am
    26    10    11    1
    27    11    12    1
    28    12    13    1
    29    13    14    1
    30    14    16    1
    31    16    17   ar
    32    17    18   ar
    33    18    19   ar
    34    19    20   ar
    35    20    21   ar
    36     6     1    1
    37    14    10    1
    38    21    16   ar
    39    27    23   ar
    40    33    28   ar
    41     9    15    1
@<TRIPOS>MOLECULE
*****
 37 41 0 0 0
SMALL
GASTEIGER

@<TRIPOS>ATOM
      1 C         141.3640  137.2668  156.7541 C.3     1  UNL1        0.0758
      2 C         140.0417  137.6549  157.3464 C.3     1  UNL1        0.0370
      3 C         139.9930  138.5335  158.5612 C.3     1  UNL1        0.0741
      4 N         141.2666  139.0240  159.1836 N.3     1  UNL1       -0.2688
      5 C         142.5889  138.6359  158.5912 C.3     1  UNL1        0.0741
      6 C         142.6376  137.7573  157.3764 C.3     1  UNL1        0.0370
      7 O         142.5717  134.5265  156.9323 O.2     1  UNL1       -0.2526
      8 C         142.0165  135.0180  155.6284 C.2     1  UNL1        0.3041
      9 N         141.4127  136.3882  155.5393 N.am    1  UNL1       -0.2903
     10 N         142.0652  134.1394  154.4136 N.am    1  UNL1       -0.2621
     11 C         141.5525  134.4927  153.0489 C.3     1  UNL1        0.0953
     12 C         141.8056  133.3249  152.1420 C.3     1  UNL1        0.0236
     13 C         142.4748  132.2499  152.9463 C.3     1  UNL1        0.0262
     14 C         142.6352  132.7534  154.3502 C.3     1  UNL1        0.1009
     15 H         141.0483  136.7108  154.6835 H       1  UNL1        0.1509
     16 C         143.2566  132.0027  155.4904 C.ar    1  UNL1        0.0150
     17 C         144.6289  132.3705  155.9715 C.ar    1  UNL1        0.0005
     18 C         145.2502  131.6197  157.1118 C.ar    1  UNL1        0.0204
     19 C         144.4992  130.5011  157.7711 C.ar    1  UNL1        0.0989
     20 N         143.1269  130.1332  157.2901 N.ar    1  UNL1       -0.2426
     21 C         142.5056  130.8840  156.1498 C.ar    1  UNL1        0.0962
     22 C         141.2179  139.9027  160.3984 C.3     1  UNL1        0.1007
     23 C         141.1252  139.2896  161.7642 C.ar    1  UNL1        0.0129
     24 C         141.0999  137.8217  162.0718 C.ar    1  UNL1        0.0176
     25 C         141.0006  137.6616  163.5599 C.ar    1  UNL1        0.0799
     26 N         140.9645  139.0306  164.1720 N.ar    1  UNL1       -0.3038
     27 C         141.0416  140.0367  163.0622 C.ar    1  UNL1        0.0772
     28 C         140.8683  139.3392  165.6368 C.ar    1  UNL1        0.0640
     29 C         142.1131  139.4179  166.4700 C.ar    1  UNL1        0.0175
     30 C         142.0169  139.7266  167.9347 C.ar    1  UNL1        0.0053
     31 C         140.6760  139.9565  168.5662 C.ar    1  UNL1        0.0715
     32 C         139.4311  139.8778  167.7331 C.ar    1  UNL1        0.0053
     33 C         139.5273  139.5692  166.2683 C.ar    1  UNL1        0.0175
     34 C         140.5798  140.2651  170.0310 C.3     1  UNL1        0.4186
     35 F         140.4835  140.5738  171.4957 F       1  UNL1       -0.1659
     36 F         141.5509  139.1610  170.3274 F       1  UNL1       -0.1659
     37 F         139.6086  141.3693  169.7346 F       1  UNL1       -0.1659
@<TRIPOS>BOND
     1     7     8    2
     2     8     9   am
     3     9     1    1
     4     1     2    1
     5     2     3    1
     6     3     4    1
     7     4    22    1
     8    22    23    1
     9    23    24   ar
    10    24    25   ar
    11    25    26   ar
    12    26    28    1
    13    28    29   ar
    14    29    30   ar
    15    30    31   ar
    16    31    34    1
    17    34    35    1
    18    34    36    1
    19    34    37    1
    20    31    32   ar
    21    32    33   ar
    22    26    27   ar
    23     4     5    1
    24     5     6    1
    25     8    10   am
    26    10    11    1
    27    11    12    1
    28    12    13    1
    29    13    14    1
    30    14    16    1
    31    16    17   ar
    32    17    18   ar
    33    18    19   ar
    34    19    20   ar
    35    20    21   ar
    36     6     1    1
    37    14    10    1
    38    21    16   ar
    39    27    23   ar
    40    33    28   ar
    41     9    15    1
@<TRIPOS>MOLECULE
*****
 37 41 0 0 0
SMALL
GASTEIGER

@<TRIPOS>ATOM
      1 C         138.5715  142.3531  159.6128 C.3     1  UNL1        0.0758
      2 C         139.1634  143.2435  158.5608 C.3     1  UNL1        0.0370
      3 C         139.5331  142.6785  157.2214 C.3     1  UNL1        0.0741
      4 N         139.3109  141.2232  156.9340 N.3     1  UNL1       -0.2688
      5 C         138.7191  140.3328  157.9861 C.3     1  UNL1        0.0741
      6 C         138.3494  140.8978  159.3255 C.3     1  UNL1        0.0370
      7 O         140.7144  143.0109  161.6068 O.2     1  UNL1       -0.2526
      8 C         139.2732  143.2469  161.9493 C.2     1  UNL1        0.3041
      9 N         138.2018  142.9181  160.9524 N.am    1  UNL1       -0.2903
     10 N         138.9035  143.8119  163.2888 N.am    1  UNL1       -0.2621
     11 C         137.5125  144.1006  163.7703 C.3     1  UNL1        0.0953
     12 C         137.6091  144.6545  165.1610 C.3     1  UNL1        0.0236
     13 C         139.0598  144.7080  165.5389 C.3     1  UNL1        0.0262
     14 C         139.8597  144.1873  164.3818 C.3     1  UNL1        0.1009
     15 H         137.2559  143.0730  161.1772 H       1  UNL1        0.1509
     16 C         141.3536  144.0636  164.3271 C.ar    1  UNL1        0.0150
     17 C         142.1801  145.1906  163.7823 C.ar    1  UNL1        0.0005
     18 C         143.6739  145.0668  163.7277 C.ar    1  UNL1        0.0204
     19 C         144.3414  143.8162  164.2180 C.ar    1  UNL1        0.0989
     20 N         143.5149  142.6892  164.7629 N.ar    1  UNL1       -0.2426
     21 C         142.0210  142.8130  164.8174 C.ar    1  UNL1        0.0962
     22 C         139.6806  140.6582  155.5945 C.3     1  UNL1        0.1007
     23 C         139.8089  139.1744  155.4158 C.ar    1  UNL1        0.0129
     24 C         138.7400  138.2517  154.9098 C.ar    1  UNL1        0.0176
     25 C         139.2990  136.8599  154.8931 C.ar    1  UNL1        0.0799
     26 N         140.7135  136.9224  155.3887 N.ar    1  UNL1       -0.3038
     27 C         141.0285  138.3529  155.7118 C.ar    1  UNL1        0.0772
     28 C         141.6486  135.7588  155.5355 C.ar    1  UNL1        0.0640
     29 C         141.4667  134.5383  154.6827 C.ar    1  UNL1        0.0175
     30 C         142.4018  133.3746  154.8295 C.ar    1  UNL1        0.0053
     31 C         143.5187  133.4315  155.8290 C.ar    1  UNL1        0.0715
     32 C         143.7006  134.6520  156.6818 C.ar    1  UNL1        0.0053
     33 C         142.7656  135.8156  156.5350 C.ar    1  UNL1        0.0175
     34 C         144.4538  132.2679  155.9757 C.3     1  UNL1        0.4186
     35 F         145.3889  131.1042  156.1226 F       1  UNL1       -0.1659
     36 F         144.0063  131.7404  154.6448 F       1  UNL1       -0.1659
     37 F         144.9013  132.7953  157.3068 F       1  UNL1       -0.1659
@<TRIPOS>BOND
     1     7     8    2
     2     8     9   am
     3     9     1    1
     4     1     2    1
     5     2     3    1
     6     3     4    1
     7     4    22    1
     8    22    23    1
     9    23    24   ar
    10    24    25   ar
    11    25    26   ar
    12    26    28    1
    13    28    29   ar
    14    29    30   ar
    15    30    31   ar
    16    31    34    1
    17    34    35    1
    18    34    36    1
    19    34    37    1
    20    31    32   ar
    21    32    33   ar
    22    26    27   ar
    23     4     5    1
    24     5     6    1
    25     8    10   am
    26    10    11    1
    27    11    12    1
    28    12    13    1
    29    13    14    1
    30    14    16    1
    31    16    17   ar
    32    17    18   ar
    33    18    19   ar
    34    19    20   ar
    35    20    21   ar
    36     6     1    1
    37    14    10    1
    38    21    16   ar
    39    27    23   ar
    40    33    28   ar
    41     9    15    1
@<TRIPOS>MOLECULE
*****
 37 41 0 0 0
SMALL
GASTEIGER

@<TRIPOS>ATOM
      1 C         138.1201  139.8725  159.3071 C.3     1  UNL1        0.0758
      2 C         139.4057  139.1076  159.1982 C.3     1  UNL1        0.0370
      3 C         139.9319  138.3527  160.3827 C.3     1  UNL1        0.0741
      4 N         139.1724  138.3628  161.6762 N.3     1  UNL1       -0.2688
      5 C         137.8867  139.1277  161.7851 C.3     1  UNL1        0.0741
      6 C         137.3606  139.8826  160.6005 C.3     1  UNL1        0.0370
      7 O         139.6120  142.2574  158.2647 O.2     1  UNL1       -0.2526
      8 C         138.3398  141.8199  157.6013 C.2     1  UNL1        0.3041
      9 N         137.5939  140.6275  158.1225 N.am    1  UNL1       -0.2903
     10 N         137.8136  142.5748  156.4167 N.am    1  UNL1       -0.2621
     11 C         136.5616  142.2571  155.6540 C.3     1  UNL1        0.0953
     12 C         136.4212  143.2659  154.5527 C.3     1  UNL1        0.0236
     13 C         137.5864  144.2070  154.6349 C.3     1  UNL1        0.0262
     14 C         138.4469  143.7799  155.7869 C.3     1  UNL1        0.1009
     15 H         136.7589  140.3403  157.6870 H       1  UNL1        0.1509
     16 C         139.7176  144.4416  156.2310 C.ar    1  UNL1        0.0150
     17 C         141.0317  144.0056  155.6539 C.ar    1  UNL1        0.0005
     18 C         142.3024  144.6674  156.0982 C.ar    1  UNL1        0.0204
     19 C         142.2591  145.7651  157.1196 C.ar    1  UNL1        0.0989
     20 N         140.9450  146.2010  157.6967 N.ar    1  UNL1       -0.2426
     21 C         139.6743  145.5393  157.2524 C.ar    1  UNL1        0.0962
     22 C         139.6986  137.6078  162.8608 C.3     1  UNL1        0.1007
     23 C         139.6258  138.2156  164.2302 C.ar    1  UNL1        0.0129
     24 C         138.5084  138.0384  165.2151 C.ar    1  UNL1        0.0176
     25 C         138.8495  138.8205  166.4488 C.ar    1  UNL1        0.0799
     26 N         140.1777  139.4812  166.2263 N.ar    1  UNL1       -0.3038
     27 C         140.6574  139.1073  164.8551 C.ar    1  UNL1        0.0772
     28 C         140.8994  140.3612  167.2034 C.ar    1  UNL1        0.0640
     29 C         140.5812  141.8254  167.2711 C.ar    1  UNL1        0.0175
     30 C         141.3030  142.7054  168.2481 C.ar    1  UNL1        0.0053
     31 C         142.3429  142.1212  169.1575 C.ar    1  UNL1        0.0715
     32 C         142.6611  140.6569  169.0899 C.ar    1  UNL1        0.0053
     33 C         141.9394  139.7769  168.1128 C.ar    1  UNL1        0.0175
     34 C         143.0646  143.0011  170.1346 C.3     1  UNL1        0.4186
     35 F         143.7864  143.8811  171.1117 F       1  UNL1       -0.1659
     36 F         141.8113  143.7988  170.3419 F       1  UNL1       -0.1659
     37 F         144.3179  142.2034  169.9274 F       1  UNL1       -0.1659
@<TRIPOS>BOND
     1     7     8    2
     2     8     9   am
     3     9     1    1
     4     1     2    1
     5     2     3    1
     6     3     4    1
     7     4    22    1
     8    22    23    1
     9    23    24   ar
    10    24    25   ar
    11    25    26   ar
    12    26    28    1
    13    28    29   ar
    14    29    30   ar
    15    30    31   ar
    16    31    34    1
    17    34    35    1
    18    34    36    1
    19    34    37    1
    20    31    32   ar
    21    32    33   ar
    22    26    27   ar
    23     4     5    1
    24     5     6    1
    25     8    10   am
    26    10    11    1
    27    11    12    1
    28    12    13    1
    29    13    14    1
    30    14    16    1
    31    16    17   ar
    32    17    18   ar
    33    18    19   ar
    34    19    20   ar
    35    20    21   ar
    36     6     1    1
    37    14    10    1
    38    21    16   ar
    39    27    23   ar
    40    33    28   ar
    41     9    15    1
@<TRIPOS>MOLECULE
*****
 37 41 0 0 0
SMALL
GASTEIGER

@<TRIPOS>ATOM
      1 C         140.3582  140.7199  159.6928 C.3     1  UNL1        0.0758
      2 C         140.6332  139.2552  159.8625 C.3     1  UNL1        0.0370
      3 C         141.4143  138.5130  158.8190 C.3     1  UNL1        0.0741
      4 N         141.9205  139.2355  157.6058 N.3     1  UNL1       -0.2688
      5 C         141.6455  140.7003  157.4362 C.3     1  UNL1        0.0741
      6 C         140.8643  141.4425  158.4797 C.3     1  UNL1        0.0370
      7 O         141.7880  142.0751  161.9555 O.2     1  UNL1       -0.2526
      8 C         140.2919  142.1398  161.8677 C.2     1  UNL1        0.3041
      9 N         139.5771  141.4622  160.7364 N.am    1  UNL1       -0.2903
     10 N         139.5108  142.8820  162.9112 N.am    1  UNL1       -0.2621
     11 C         138.0189  143.0320  162.9550 C.3     1  UNL1        0.0953
     12 C         137.6704  143.8473  164.1650 C.3     1  UNL1        0.0236
     13 C         138.9469  144.2011  164.8689 C.3     1  UNL1        0.0262
     14 C         140.0843  143.6046  164.0940 C.3     1  UNL1        0.1009
     15 H         138.5952  141.5047  160.6788 H       1  UNL1        0.1509
     16 C         141.5397  143.7117  164.4409 C.ar    1  UNL1        0.0150
     17 C         142.3700  144.8173  163.8592 C.ar    1  UNL1        0.0005
     18 C         143.8253  144.9243  164.2062 C.ar    1  UNL1        0.0204
     19 C         144.4505  143.9259  165.1348 C.ar    1  UNL1        0.0989
     20 N         143.6202  142.8203  165.7164 N.ar    1  UNL1       -0.2426
     21 C         142.1648  142.7132  165.3695 C.ar    1  UNL1        0.0962
     22 C         142.7016  138.4933  156.5623 C.3     1  UNL1        0.1007
     23 C         142.4589  137.0293  156.3439 C.ar    1  UNL1        0.0129
     24 C         141.3530  136.4314  155.5256 C.ar    1  UNL1        0.0176
     25 C         141.4901  134.9387  155.5814 C.ar    1  UNL1        0.0799
     26 N         142.6807  134.6140  156.4341 N.ar    1  UNL1       -0.3038
     27 C         143.2795  135.9061  156.9053 C.ar    1  UNL1        0.0772
     28 C         143.1842  133.2388  156.7586 C.ar    1  UNL1        0.0640
     29 C         144.4071  133.0695  157.6104 C.ar    1  UNL1        0.0175
     30 C         144.9106  131.6942  157.9349 C.ar    1  UNL1        0.0053
     31 C         144.1911  130.4884  157.4076 C.ar    1  UNL1        0.0715
     32 C         142.9681  130.6577  156.5558 C.ar    1  UNL1        0.0053
     33 C         142.4646  132.0329  156.2313 C.ar    1  UNL1        0.0175
     34 C         144.6945  129.1132  157.7321 C.3     1  UNL1        0.4186
     35 F         145.1980  127.7379  158.0565 F       1  UNL1       -0.1659
     36 F         144.4183  129.3553  159.1864 F       1  UNL1       -0.1659
     37 F         144.9707  128.8711  156.2777 F       1  UNL1       -0.1659
@<TRIPOS>BOND
     1     7     8    2
     2     8     9   am
     3     9     1    1
     4     1     2    1
     5     2     3    1
     6     3     4    1
     7     4    22    1
     8    22    23    1
     9    23    24   ar
    10    24    25   ar
    11    25    26   ar
    12    26    28    1
    13    28    29   ar
    14    29    30   ar
    15    30    31   ar
    16    31    34    1
    17    34    35    1
    18    34    36    1
    19    34    37    1
    20    31    32   ar
    21    32    33   ar
    22    26    27   ar
    23     4     5    1
    24     5     6    1
    25     8    10   am
    26    10    11    1
    27    11    12    1
    28    12    13    1
    29    13    14    1
    30    14    16    1
    31    16    17   ar
    32    17    18   ar
    33    18    19   ar
    34    19    20   ar
    35    20    21   ar
    36     6     1    1
    37    14    10    1
    38    21    16   ar
    39    27    23   ar
    40    33    28   ar
    41     9    15    1
@<TRIPOS>MOLECULE
*****
 37 41 0 0 0
SMALL
GASTEIGER

@<TRIPOS>ATOM
      1 C         143.1227  139.3265  161.3816 C.3     1  UNL1        0.0758
      2 C         143.6972  140.3216  160.4174 C.3     1  UNL1        0.0370
      3 C         143.7216  140.0155  158.9492 C.3     1  UNL1        0.0741
      4 N         143.1714  138.7142  158.4452 N.3     1  UNL1       -0.2688
      5 C         142.5969  137.7191  159.4093 C.3     1  UNL1        0.0741
      6 C         142.5726  138.0252  160.8775 C.3     1  UNL1        0.0370
      7 O         141.0831  141.2307  162.4833 O.2     1  UNL1       -0.2526
      8 C         142.0786  140.5847  163.4007 C.2     1  UNL1        0.3041
      9 N         143.0984  139.6326  162.8499 N.am    1  UNL1       -0.2903
     10 N         142.0542  140.8908  164.8690 N.am    1  UNL1       -0.2621
     11 C         142.9813  140.3242  165.9031 C.3     1  UNL1        0.0953
     12 C         142.5986  140.9004  167.2342 C.3     1  UNL1        0.0236
     13 C         141.4350  141.8231  167.0225 C.3     1  UNL1        0.0262
     14 C         141.0986  141.8172  165.5607 C.3     1  UNL1        0.1009
     15 H         143.7517  139.2086  163.4520 H       1  UNL1        0.1509
     16 C         139.9996  142.6001  164.9057 C.ar    1  UNL1        0.0150
     17 C         138.6409  141.9876  164.7357 C.ar    1  UNL1        0.0005
     18 C         137.5420  142.7707  164.0806 C.ar    1  UNL1        0.0204
     19 C         137.8015  144.1662  163.5956 C.ar    1  UNL1        0.0989
     20 N         139.1602  144.7786  163.7656 N.ar    1  UNL1       -0.2426
     21 C         140.2592  143.9956  164.4207 C.ar    1  UNL1        0.0962
     22 C         143.1958  138.4081  156.9769 C.3     1  UNL1        0.1007
     23 C         142.7882  137.0503  156.4870 C.ar    1  UNL1        0.0129
     24 C         141.4059  136.6406  156.0731 C.ar    1  UNL1        0.0176
     25 C         141.4547  135.2008  155.6553 C.ar    1  UNL1        0.0799
     26 N         142.8672  134.7206  155.8109 N.ar    1  UNL1       -0.3038
     27 C         143.6914  135.8636  156.3250 C.ar    1  UNL1        0.0772
     28 C         143.3677  133.3398  155.5061 C.ar    1  UNL1        0.0640
     29 C         142.8612  132.6080  154.2987 C.ar    1  UNL1        0.0175
     30 C         143.3617  131.2273  153.9939 C.ar    1  UNL1        0.0053
     31 C         144.3687  130.5783  154.8964 C.ar    1  UNL1        0.0715
     32 C         144.8753  131.3100  156.1038 C.ar    1  UNL1        0.0053
     33 C         144.3748  132.6908  156.4086 C.ar    1  UNL1        0.0175
     34 C         144.8692  129.1975  154.5915 C.3     1  UNL1        0.4186
     35 F         145.3697  127.8167  154.2868 F       1  UNL1       -0.1659
     36 F         145.1647  129.6159  153.1817 F       1  UNL1       -0.1659
     37 F         144.5736  128.7791  156.0014 F       1  UNL1       -0.1659
@<TRIPOS>BOND
     1     7     8    2
     2     8     9   am
     3     9     1    1
     4     1     2    1
     5     2     3    1
     6     3     4    1
     7     4    22    1
     8    22    23    1
     9    23    24   ar
    10    24    25   ar
    11    25    26   ar
    12    26    28    1
    13    28    29   ar
    14    29    30   ar
    15    30    31   ar
    16    31    34    1
    17    34    35    1
    18    34    36    1
    19    34    37    1
    20    31    32   ar
    21    32    33   ar
    22    26    27   ar
    23     4     5    1
    24     5     6    1
    25     8    10   am
    26    10    11    1
    27    11    12    1
    28    12    13    1
    29    13    14    1
    30    14    16    1
    31    16    17   ar
    32    17    18   ar
    33    18    19   ar
    34    19    20   ar
    35    20    21   ar
    36     6     1    1
    37    14    10    1
    38    21    16   ar
    39    27    23   ar
    40    33    28   ar
    41     9    15    1
@<TRIPOS>MOLECULE
*****
 37 41 0 0 0
SMALL
GASTEIGER

@<TRIPOS>ATOM
      1 C         138.7878  140.7627  161.2546 C.3     1  UNL1        0.0758
      2 C         138.5378  142.1441  160.7264 C.3     1  UNL1        0.0370
      3 C         138.3862  142.3668  159.2509 C.3     1  UNL1        0.0741
      4 N         138.4846  141.2080  158.3035 N.3     1  UNL1       -0.2688
      5 C         138.7347  139.8266  158.8316 C.3     1  UNL1        0.0741
      6 C         138.8863  139.6039  160.3072 C.3     1  UNL1        0.0370
      7 O         141.4800  141.0515  162.5465 O.2     1  UNL1       -0.2526
      8 C         140.2855  140.6844  163.3762 C.2     1  UNL1        0.3041
      9 N         138.9395  140.5399  162.7303 N.am    1  UNL1       -0.2903
     10 N         140.4371  140.4616  164.8518 N.am    1  UNL1       -0.2621
     11 C         139.3395  140.0917  165.8049 C.3     1  UNL1        0.0953
     12 C         139.9369  139.9712  167.1756 C.3     1  UNL1        0.0236
     13 C         141.4038  140.2666  167.0695 C.3     1  UNL1        0.0262
     14 C         141.7129  140.5697  165.6333 C.3     1  UNL1        0.1009
     15 H         138.1555  140.2989  163.2748 H       1  UNL1        0.1509
     16 C         143.0610  140.9194  165.0764 C.ar    1  UNL1        0.0150
     17 C         143.5138  142.3492  165.0503 C.ar    1  UNL1        0.0005
     18 C         144.8619  142.6989  164.4934 C.ar    1  UNL1        0.0204
     19 C         145.7573  141.6188  163.9625 C.ar    1  UNL1        0.0989
     20 N         145.3045  140.1891  163.9886 N.ar    1  UNL1       -0.2426
     21 C         143.9564  139.8394  164.5455 C.ar    1  UNL1        0.0962
     22 C         138.3330  141.4307  156.8278 C.3     1  UNL1        0.1007
     23 C         136.9773  141.3453  156.1918 C.ar    1  UNL1        0.0129
     24 C         136.5995  141.8870  154.8451 C.ar    1  UNL1        0.0176
     25 C         135.1500  141.5796  154.6118 C.ar    1  UNL1        0.0799
     26 N         134.6319  140.8479  155.8144 N.ar    1  UNL1       -0.3038
     27 C         135.7612  140.7030  156.7909 C.ar    1  UNL1        0.0772
     28 C         133.2305  140.3486  156.0067 C.ar    1  UNL1        0.0640
     29 C         132.9928  138.9500  156.4937 C.ar    1  UNL1        0.0175
     30 C         131.5915  138.4508  156.6860 C.ar    1  UNL1        0.0053
     31 C         130.4279  139.3501  156.3913 C.ar    1  UNL1        0.0715
     32 C         130.6655  140.7488  155.9042 C.ar    1  UNL1        0.0053
     33 C         132.0669  141.2480  155.7119 C.ar    1  UNL1        0.0175
     34 C         129.0266  138.8509  156.5836 C.3     1  UNL1        0.4186
     35 F         127.6252  138.3517  156.7759 F       1  UNL1       -0.1659
     36 F         129.3579  137.6176  155.7967 F       1  UNL1       -0.1659
     37 F         128.6951  140.0842  157.3705 F       1  UNL1       -0.1659
@<TRIPOS>BOND
     1     7     8    2
     2     8     9   am
     3     9     1    1
     4     1     2    1
     5     2     3    1
     6     3     4    1
     7     4    22    1
     8    22    23    1
     9    23    24   ar
    10    24    25   ar
    11    25    26   ar
    12    26    28    1
    13    28    29   ar
    14    29    30   ar
    15    30    31   ar
    16    31    34    1
    17    34    35    1
    18    34    36    1
    19    34    37    1
    20    31    32   ar
    21    32    33   ar
    22    26    27   ar
    23     4     5    1
    24     5     6    1
    25     8    10   am
    26    10    11    1
    27    11    12    1
    28    12    13    1
    29    13    14    1
    30    14    16    1
    31    16    17   ar
    32    17    18   ar
    33    18    19   ar
    34    19    20   ar
    35    20    21   ar
    36     6     1    1
    37    14    10    1
    38    21    16   ar
    39    27    23   ar
    40    33    28   ar
    41     9    15    1
@<TRIPOS>MOLECULE
*****
 37 41 0 0 0
SMALL
GASTEIGER

@<TRIPOS>ATOM
      1 C         140.8899  138.6916  160.5890 C.3     1  UNL1        0.0758
      2 C         142.3201  138.4962  160.1811 C.3     1  UNL1        0.0370
      3 C         142.6547  138.1577  158.7587 C.3     1  UNL1        0.0741
      4 N         141.5592  138.0147  157.7441 N.3     1  UNL1       -0.2688
      5 C         140.1291  138.2102  158.1520 C.3     1  UNL1        0.0741
      6 C         139.7944  138.5486  159.5744 C.3     1  UNL1        0.0370
      7 O         140.4848  141.5529  161.3947 O.2     1  UNL1       -0.2526
      8 C         140.3527  140.4607  162.4143 C.2     1  UNL1        0.3041
      9 N         140.5552  139.0301  162.0115 N.am    1  UNL1       -0.2903
     10 N         140.0180  140.7992  163.8369 N.am    1  UNL1       -0.2621
     11 C         139.8542  139.8196  164.9610 C.3     1  UNL1        0.0953
     12 C         139.5233  140.5916  166.2039 C.3     1  UNL1        0.0236
     13 C         139.4826  142.0482  165.8478 C.3     1  UNL1        0.0262
     14 C         139.7883  142.1764  164.3849 C.3     1  UNL1        0.1009
     15 H         140.4685  138.3133  162.6807 H       1  UNL1        0.1509
     16 C         139.8531  143.4571  163.6066 C.ar    1  UNL1        0.0150
     17 C         141.1347  144.2342  163.5463 C.ar    1  UNL1        0.0005
     18 C         141.1993  145.5148  162.7680 C.ar    1  UNL1        0.0204
     19 C         139.9824  146.0184  162.0499 C.ar    1  UNL1        0.0989
     20 N         138.7008  145.2413  162.1102 N.ar    1  UNL1       -0.2426
     21 C         138.6362  143.9607  162.8885 C.ar    1  UNL1        0.0962
     22 C         141.8939  137.6763  156.3216 C.3     1  UNL1        0.1007
     23 C         142.2024  136.2587  155.9406 C.ar    1  UNL1        0.0129
     24 C         142.0605  135.6630  154.5713 C.ar    1  UNL1        0.0176
     25 C         142.4773  134.2240  154.6464 C.ar    1  UNL1        0.0799
     26 N         142.8768  133.9303  156.0621 N.ar    1  UNL1       -0.3038
     27 C         142.7068  135.1879  156.8619 C.ar    1  UNL1        0.0772
     28 C         143.3611  132.6109  156.5860 C.ar    1  UNL1        0.0640
     29 C         144.5621  132.5552  157.4828 C.ar    1  UNL1        0.0175
     30 C         145.0464  131.2357  158.0066 C.ar    1  UNL1        0.0053
     31 C         144.3297  129.9720  157.6337 C.ar    1  UNL1        0.0715
     32 C         143.1286  130.0276  156.7370 C.ar    1  UNL1        0.0053
     33 C         142.6443  131.3471  156.2131 C.ar    1  UNL1        0.0175
     34 C         144.8140  128.6525  158.1576 C.3     1  UNL1        0.4186
     35 F         145.2983  127.3330  158.6814 F       1  UNL1       -0.1659
     36 F         144.2350  128.9744  159.5034 F       1  UNL1       -0.1659
     37 F         145.3930  128.3307  156.8117 F       1  UNL1       -0.1659
@<TRIPOS>BOND
     1     7     8    2
     2     8     9   am
     3     9     1    1
     4     1     2    1
     5     2     3    1
     6     3     4    1
     7     4    22    1
     8    22    23    1
     9    23    24   ar
    10    24    25   ar
    11    25    26   ar
    12    26    28    1
    13    28    29   ar
    14    29    30   ar
    15    30    31   ar
    16    31    34    1
    17    34    35    1
    18    34    36    1
    19    34    37    1
    20    31    32   ar
    21    32    33   ar
    22    26    27   ar
    23     4     5    1
    24     5     6    1
    25     8    10   am
    26    10    11    1
    27    11    12    1
    28    12    13    1
    29    13    14    1
    30    14    16    1
    31    16    17   ar
    32    17    18   ar
    33    18    19   ar
    34    19    20   ar
    35    20    21   ar
    36     6     1    1
    37    14    10    1
    38    21    16   ar
    39    27    23   ar
    40    33    28   ar
    41     9    15    1
@<TRIPOS>MOLECULE
*****
 37 41 0 0 0
SMALL
GASTEIGER

@<TRIPOS>ATOM
      1 C         138.8787  141.1866  159.4341 C.3     1  UNL1        0.0758
      2 C         139.1106  141.9179  158.1452 C.3     1  UNL1        0.0370
      3 C         139.5111  141.1598  156.9144 C.3     1  UNL1        0.0741
      4 N         139.6796  139.6705  156.9726 N.3     1  UNL1       -0.2688
      5 C         139.4476  138.9392  158.2615 C.3     1  UNL1        0.0741
      6 C         139.0471  139.6973  159.4923 C.3     1  UNL1        0.0370
      7 O         140.9819  142.3145  161.2519 O.2     1  UNL1       -0.2526
      8 C         139.5298  142.5086  161.5739 C.2     1  UNL1        0.3041
      9 N         138.4782  141.9447  160.6650 N.am    1  UNL1       -0.2903
     10 N         139.1293  143.2667  162.8048 N.am    1  UNL1       -0.2621
     11 C         137.7244  143.5395  163.2540 C.3     1  UNL1        0.0953
     12 C         137.7902  144.3265  164.5294 C.3     1  UNL1        0.0236
     13 C         139.2358  144.5400  164.8682 C.3     1  UNL1        0.0262
     14 C         140.0634  143.8850  163.8024 C.3     1  UNL1        0.1009
     15 H         137.5251  142.0721  160.8764 H       1  UNL1        0.1509
     16 C         141.5619  143.8538  163.7442 C.ar    1  UNL1        0.0150
     17 C         142.3202  142.8041  164.5012 C.ar    1  UNL1        0.0005
     18 C         143.8187  142.7730  164.4430 C.ar    1  UNL1        0.0204
     19 C         144.5591  143.7916  163.6278 C.ar    1  UNL1        0.0989
     20 N         143.8007  144.8413  162.8708 N.ar    1  UNL1       -0.2426
     21 C         142.3022  144.8724  162.9290 C.ar    1  UNL1        0.0962
     22 C         140.0801  138.9124  155.7417 C.3     1  UNL1        0.1007
     23 C         141.2854  138.0200  155.7694 C.ar    1  UNL1        0.0129
     24 C         142.7026  138.4446  155.5223 C.ar    1  UNL1        0.0176
     25 C         143.5782  137.2333  155.6494 C.ar    1  UNL1        0.0799
     26 N         142.7021  136.0601  155.9750 N.ar    1  UNL1       -0.3038
     27 C         141.2851  136.5463  156.0492 C.ar    1  UNL1        0.0772
     28 C         143.1623  134.6485  156.1888 C.ar    1  UNL1        0.0640
     29 C         142.9559  133.6216  155.1152 C.ar    1  UNL1        0.0175
     30 C         143.4161  132.2101  155.3290 C.ar    1  UNL1        0.0053
     31 C         144.0826  131.8254  156.6165 C.ar    1  UNL1        0.0715
     32 C         144.2890  132.8523  157.6902 C.ar    1  UNL1        0.0053
     33 C         143.8288  134.2639  157.4764 C.ar    1  UNL1        0.0175
     34 C         144.5428  130.4139  156.8303 C.3     1  UNL1        0.4186
     35 F         145.0030  129.0023  157.0442 F       1  UNL1       -0.1659
     36 F         143.8122  129.9880  155.5914 F       1  UNL1       -0.1659
     37 F         145.2735  130.8397  158.0692 F       1  UNL1       -0.1659
@<TRIPOS>BOND
     1     7     8    2
     2     8     9   am
     3     9     1    1
     4     1     2    1
     5     2     3    1
     6     3     4    1
     7     4    22    1
     8    22    23    1
     9    23    24   ar
    10    24    25   ar
    11    25    26   ar
    12    26    28    1
    13    28    29   ar
    14    29    30   ar
    15    30    31   ar
    16    31    34    1
    17    34    35    1
    18    34    36    1
    19    34    37    1
    20    31    32   ar
    21    32    33   ar
    22    26    27   ar
    23     4     5    1
    24     5     6    1
    25     8    10   am
    26    10    11    1
    27    11    12    1
    28    12    13    1
    29    13    14    1
    30    14    16    1
    31    16    17   ar
    32    17    18   ar
    33    18    19   ar
    34    19    20   ar
    35    20    21   ar
    36     6     1    1
    37    14    10    1
    38    21    16   ar
    39    27    23   ar
    40    33    28   ar
    41     9    15    1
