@<TRIPOS>MOLECULE
*****
 27 29 0 0 0
SMALL
GASTEIGER

@<TRIPOS>ATOM
      1 C         139.4544  141.5814  164.0962 C.ar    1  UNL1        0.0858
      2 C         139.3425  140.5737  162.9908 C.ar    1  UNL1        0.0399
      3 C         138.9653  141.0160  161.6080 C.ar    1  UNL1        0.1032
      4 N         138.8534  140.0083  160.5026 N.ar    1  UNL1       -0.2405
      5 C         138.4762  140.4506  159.1199 C.ar    1  UNL1        0.1195
      6 C         138.2108  141.9007  158.8425 C.ar    1  UNL1        0.1196
      7 N         138.3227  142.9084  159.9479 N.ar    1  UNL1       -0.2379
      8 C         138.6999  142.4661  161.3306 C.ar    1  UNL1        0.1302
      9 C         138.8118  143.4738  162.4361 C.ar    1  UNL1        0.1477
     10 N         139.1890  143.0315  163.8189 N.ar    1  UNL1       -0.2292
     11 C         140.5861  140.2546  168.2445 C.ar    1  UNL1        0.1318
     12 C         139.3391  139.7240  167.6014 C.ar    1  UNL1        0.0344
     13 C         138.9619  140.1663  166.2187 C.ar    1  UNL1        0.0059
     14 C         139.8316  141.1391  165.4790 C.ar    1  UNL1        0.0370
     15 C         141.0785  141.6697  166.1222 C.ar    1  UNL1        0.1018
     16 N         141.4558  141.2275  167.5049 N.ar    1  UNL1       -0.2291
     17 C         140.0211  140.0425  170.7716 C.3     1  UNL1        0.1136
     18 N         140.9633  139.8123  169.6274 N.pl3   1  UNL1       -0.2897
     19 C         142.2827  139.1398  169.8659 C.3     1  UNL1        0.1136
     20 N         138.5465  144.9239  162.1588 N.pl3   1  UNL1       -0.3169
     21 H         137.6261  145.2338  161.9973 H       1  UNL1        0.1482
     22 C         139.6835  145.9018  162.1275 C.3     1  UNL1        0.0883
     23 C         141.0942  145.4170  162.2853 C.3     1  UNL1        0.0238
     24 C         141.7424  145.4229  163.6380 C.3     1  UNL1        0.0335
     25 C         143.2069  145.1261  163.7693 C.3     1  UNL1        0.1372
     26 O         144.1123  145.2791  162.5833 O.3     1  UNL1       -0.3820
     27 H         143.8740  144.6248  161.9080 H       1  UNL1        0.2104
@<TRIPOS>BOND
     1    17    18    1
     2    18    19    1
     3    18    11    1
     4    11    12   ar
     5    12    13   ar
     6    13    14   ar
     7    14     1    1
     8     1     2   ar
     9     2     3   ar
    10     3     4   ar
    11     4     5   ar
    12     5     6   ar
    13     6     7   ar
    14     7     8   ar
    15     8     9   ar
    16     9    20    1
    17    20    22    1
    18    22    23    1
    19    23    24    1
    20    24    25    1
    21    25    26    1
    22     9    10   ar
    23    14    15   ar
    24    15    16   ar
    25    16    11   ar
    26    10     1   ar
    27     8     3   ar
    28    20    21    1
    29    26    27    1
@<TRIPOS>MOLECULE
*****
 27 29 0 0 0
SMALL
GASTEIGER

@<TRIPOS>ATOM
      1 C         139.8269  143.1499  160.2347 C.ar    1  UNL1        0.0858
      2 C         141.3171  142.9810  160.2621 C.ar    1  UNL1        0.0399
      3 C         142.1261  143.6339  161.3435 C.ar    1  UNL1        0.1032
      4 N         143.6163  143.4650  161.3709 N.ar    1  UNL1       -0.2405
      5 C         144.4252  144.1179  162.4523 C.ar    1  UNL1        0.1195
      6 C         143.7440  144.9396  163.5062 C.ar    1  UNL1        0.1196
      7 N         142.2538  145.1085  163.4787 N.ar    1  UNL1       -0.2379
      8 C         141.4449  144.4556  162.3974 C.ar    1  UNL1        0.1302
      9 C         139.9546  144.6244  162.3699 C.ar    1  UNL1        0.1477
     10 N         139.1457  143.9716  161.2885 N.ar    1  UNL1       -0.2292
     11 C         137.3999  141.1912  156.9907 C.ar    1  UNL1        0.1318
     12 C         138.0545  142.5175  156.7406 C.ar    1  UNL1        0.0344
     13 C         138.8634  143.1704  157.8219 C.ar    1  UNL1        0.0059
     14 C         139.0179  142.4970  159.1533 C.ar    1  UNL1        0.0370
     15 C         138.3634  141.1707  159.4034 C.ar    1  UNL1        0.1018
     16 N         137.5544  140.5178  158.3221 N.ar    1  UNL1       -0.2291
     17 C         135.0926  140.5592  155.9772 C.3     1  UNL1        0.1136
     18 N         136.5909  140.5383  155.9093 N.pl3   1  UNL1       -0.2897
     19 C         137.2803  139.8646  154.7600 C.3     1  UNL1        0.1136
     20 N         139.2734  145.4462  163.4238 N.pl3   1  UNL1       -0.3169
     21 H         139.1211  146.4076  163.2764 H       1  UNL1        0.1482
     22 C         138.8241  144.8031  164.7023 C.3     1  UNL1        0.0883
     23 C         137.8200  143.6892  164.6691 C.3     1  UNL1        0.0238
     24 C         138.2809  142.2624  164.7118 C.3     1  UNL1        0.0335
     25 C         137.9784  141.3419  163.5668 C.3     1  UNL1        0.1372
     26 O         136.5901  141.2782  163.0023 O.3     1  UNL1       -0.3820
     27 H         135.9868  140.9126  163.6682 H       1  UNL1        0.2104
@<TRIPOS>BOND
     1    17    18    1
     2    18    19    1
     3    18    11    1
     4    11    12   ar
     5    12    13   ar
     6    13    14   ar
     7    14     1    1
     8     1     2   ar
     9     2     3   ar
    10     3     4   ar
    11     4     5   ar
    12     5     6   ar
    13     6     7   ar
    14     7     8   ar
    15     8     9   ar
    16     9    20    1
    17    20    22    1
    18    22    23    1
    19    23    24    1
    20    24    25    1
    21    25    26    1
    22     9    10   ar
    23    14    15   ar
    24    15    16   ar
    25    16    11   ar
    26    10     1   ar
    27     8     3   ar
    28    20    21    1
    29    26    27    1
@<TRIPOS>MOLECULE
*****
 27 29 0 0 0
SMALL
GASTEIGER

@<TRIPOS>ATOM
      1 C         140.5001  141.9023  166.1224 C.ar    1  UNL1        0.0858
      2 C         141.2948  142.4106  167.2886 C.ar    1  UNL1        0.0399
      3 C         141.1253  141.7850  168.6414 C.ar    1  UNL1        0.1032
      4 N         141.9200  142.2933  169.8076 N.ar    1  UNL1       -0.2405
      5 C         141.7505  141.6676  171.1603 C.ar    1  UNL1        0.1195
      6 C         140.7863  140.5338  171.3468 C.ar    1  UNL1        0.1196
      7 N         139.9917  140.0255  170.1806 N.ar    1  UNL1       -0.2379
      8 C         140.1612  140.6511  168.8279 C.ar    1  UNL1        0.1302
      9 C         139.3665  140.1429  167.6616 C.ar    1  UNL1        0.1477
     10 N         139.5360  140.7685  166.3089 N.ar    1  UNL1       -0.2292
     11 C         141.0085  143.7790  162.0641 C.ar    1  UNL1        0.1318
     12 C         140.5449  144.6115  163.2226 C.ar    1  UNL1        0.0344
     13 C         140.3754  143.9859  164.5754 C.ar    1  UNL1        0.0059
     14 C         140.6696  142.5280  164.7696 C.ar    1  UNL1        0.0370
     15 C         141.1332  141.6955  163.6111 C.ar    1  UNL1        0.1018
     16 N         141.3026  142.3211  162.2584 N.ar    1  UNL1       -0.2291
     17 C         140.3594  145.6027  160.3312 C.3     1  UNL1        0.1136
     18 N         141.1779  144.4046  160.7113 N.pl3   1  UNL1       -0.2897
     19 C         142.1660  143.8321  159.7387 C.3     1  UNL1        0.1136
     20 N         138.4023  139.0090  167.8480 N.pl3   1  UNL1       -0.3169
     21 H         138.2154  138.6653  168.7515 H       1  UNL1        0.1482
     22 C         137.7230  138.3988  166.6581 C.3     1  UNL1        0.0883
     23 C         138.4151  137.3294  165.8659 C.3     1  UNL1        0.0238
     24 C         139.2822  137.7022  164.7000 C.3     1  UNL1        0.0335
     25 C         138.6831  138.3911  163.5098 C.3     1  UNL1        0.1372
     26 O         138.2081  139.8092  163.6245 O.3     1  UNL1       -0.3820
     27 H         137.4531  139.8492  164.2322 H       1  UNL1        0.2104
@<TRIPOS>BOND
     1    17    18    1
     2    18    19    1
     3    18    11    1
     4    11    12   ar
     5    12    13   ar
     6    13    14   ar
     7    14     1    1
     8     1     2   ar
     9     2     3   ar
    10     3     4   ar
    11     4     5   ar
    12     5     6   ar
    13     6     7   ar
    14     7     8   ar
    15     8     9   ar
    16     9    20    1
    17    20    22    1
    18    22    23    1
    19    23    24    1
    20    24    25    1
    21    25    26    1
    22     9    10   ar
    23    14    15   ar
    24    15    16   ar
    25    16    11   ar
    26    10     1   ar
    27     8     3   ar
    28    20    21    1
    29    26    27    1
@<TRIPOS>MOLECULE
*****
 27 29 0 0 0
SMALL
GASTEIGER

@<TRIPOS>ATOM
      1 C         142.1976  142.4379  164.4345 C.ar    1  UNL1        0.0858
      2 C         142.9040  141.7213  163.3221 C.ar    1  UNL1        0.0399
      3 C         142.9314  142.3158  161.9451 C.ar    1  UNL1        0.1032
      4 N         143.6379  141.5992  160.8328 N.ar    1  UNL1       -0.2405
      5 C         143.6653  142.1937  159.4559 C.ar    1  UNL1        0.1195
      6 C         142.9862  143.5048  159.1914 C.ar    1  UNL1        0.1196
      7 N         142.2798  144.2214  160.3038 N.ar    1  UNL1       -0.2379
      8 C         142.2524  143.6269  161.6806 C.ar    1  UNL1        0.1302
      9 C         141.5459  144.3435  162.7931 C.ar    1  UNL1        0.1477
     10 N         141.5185  143.7490  164.1700 N.ar    1  UNL1       -0.2292
     11 C         142.1153  140.6544  168.5651 C.ar    1  UNL1        0.1318
     12 C         143.0646  141.7721  168.2495 C.ar    1  UNL1        0.0344
     13 C         143.0921  142.3666  166.8727 C.ar    1  UNL1        0.0059
     14 C         142.1702  141.8434  165.8114 C.ar    1  UNL1        0.0370
     15 C         141.2209  140.7257  166.1270 C.ar    1  UNL1        0.1018
     16 N         141.1934  140.1313  167.5038 N.ar    1  UNL1       -0.2291
     17 C         142.6378  138.6842  170.1761 C.3     1  UNL1        0.1136
     18 N         142.0879  140.0600  169.9421 N.pl3   1  UNL1       -0.2897
     19 C         141.5105  140.8413  171.0849 C.3     1  UNL1        0.1136
     20 N         140.8668  145.6545  162.5286 N.pl3   1  UNL1       -0.3169
     21 H         141.3861  146.4907  162.5488 H       1  UNL1        0.1482
     22 C         139.3967  145.6916  162.2334 C.3     1  UNL1        0.0883
     23 C         138.4630  144.7666  162.9564 C.3     1  UNL1        0.0238
     24 C         138.0625  143.4642  162.3290 C.3     1  UNL1        0.0335
     25 C         137.8919  142.2421  163.1818 C.3     1  UNL1        0.1372
     26 O         136.6326  141.4325  163.0888 O.3     1  UNL1       -0.3820
     27 H         135.8846  141.9601  163.4098 H       1  UNL1        0.2104
@<TRIPOS>BOND
     1    17    18    1
     2    18    19    1
     3    18    11    1
     4    11    12   ar
     5    12    13   ar
     6    13    14   ar
     7    14     1    1
     8     1     2   ar
     9     2     3   ar
    10     3     4   ar
    11     4     5   ar
    12     5     6   ar
    13     6     7   ar
    14     7     8   ar
    15     8     9   ar
    16     9    20    1
    17    20    22    1
    18    22    23    1
    19    23    24    1
    20    24    25    1
    21    25    26    1
    22     9    10   ar
    23    14    15   ar
    24    15    16   ar
    25    16    11   ar
    26    10     1   ar
    27     8     3   ar
    28    20    21    1
    29    26    27    1
@<TRIPOS>MOLECULE
*****
 27 29 0 0 0
SMALL
GASTEIGER

@<TRIPOS>ATOM
      1 C         140.2714  139.9536  164.5877 C.ar    1  UNL1        0.0858
      2 C         139.2042  140.4386  163.6518 C.ar    1  UNL1        0.0399
      3 C         139.1950  139.9814  162.2232 C.ar    1  UNL1        0.1032
      4 N         138.1278  140.4664  161.2874 N.ar    1  UNL1       -0.2405
      5 C         138.1187  140.0092  159.8588 C.ar    1  UNL1        0.1195
      6 C         139.1766  139.0669  159.3661 C.ar    1  UNL1        0.1196
      7 N         140.2438  138.5818  160.3020 N.ar    1  UNL1       -0.2379
      8 C         140.2530  139.0391  161.7305 C.ar    1  UNL1        0.1302
      9 C         141.3202  138.5540  162.6664 C.ar    1  UNL1        0.1477
     10 N         141.3294  139.0113  164.0950 N.ar    1  UNL1       -0.2292
     11 C         140.2991  141.3253  168.8734 C.ar    1  UNL1        0.1318
     12 C         139.4682  140.1437  168.4695 C.ar    1  UNL1        0.0344
     13 C         139.4589  139.6864  167.0410 C.ar    1  UNL1        0.0059
     14 C         140.2806  140.4108  166.0163 C.ar    1  UNL1        0.0370
     15 C         141.1116  141.5925  166.4202 C.ar    1  UNL1        0.1018
     16 N         141.1208  142.0498  167.8487 N.ar    1  UNL1       -0.2291
     17 C         140.8839  140.8989  171.3686 C.3     1  UNL1        0.1136
     18 N         140.3084  141.7826  170.3020 N.pl3   1  UNL1       -0.2897
     19 C         139.7420  143.1236  170.6640 C.3     1  UNL1        0.1136
     20 N         142.3782  137.6117  162.1737 N.pl3   1  UNL1       -0.3169
     21 H         142.2200  136.6402  162.1936 H       1  UNL1        0.1482
     22 C         143.6770  138.1496  161.6507 C.3     1  UNL1        0.0883
     23 C         144.1016  139.5473  161.9916 C.3     1  UNL1        0.0238
     24 C         144.7040  139.8421  163.3333 C.3     1  UNL1        0.0335
     25 C         145.1091  141.2436  163.6820 C.3     1  UNL1        0.1372
     26 O         146.3855  141.8129  163.1374 O.3     1  UNL1       -0.3820
     27 H         147.1397  141.3289  163.5085 H       1  UNL1        0.2104
@<TRIPOS>BOND
     1    17    18    1
     2    18    19    1
     3    18    11    1
     4    11    12   ar
     5    12    13   ar
     6    13    14   ar
     7    14     1    1
     8     1     2   ar
     9     2     3   ar
    10     3     4   ar
    11     4     5   ar
    12     5     6   ar
    13     6     7   ar
    14     7     8   ar
    15     8     9   ar
    16     9    20    1
    17    20    22    1
    18    22    23    1
    19    23    24    1
    20    24    25    1
    21    25    26    1
    22     9    10   ar
    23    14    15   ar
    24    15    16   ar
    25    16    11   ar
    26    10     1   ar
    27     8     3   ar
    28    20    21    1
    29    26    27    1
@<TRIPOS>MOLECULE
*****
 27 29 0 0 0
SMALL
GASTEIGER

@<TRIPOS>ATOM
      1 C         140.7856  143.0045  164.1082 C.ar    1  UNL1        0.0858
      2 C         141.5659  143.8532  163.1487 C.ar    1  UNL1        0.0399
      3 C         141.0615  144.0629  161.7516 C.ar    1  UNL1        0.1032
      4 N         141.8418  144.9116  160.7921 N.ar    1  UNL1       -0.2405
      5 C         141.3375  145.1214  159.3951 C.ar    1  UNL1        0.1195
      6 C         140.0528  144.4824  158.9577 C.ar    1  UNL1        0.1196
      7 N         139.2725  143.6337  159.9172 N.ar    1  UNL1       -0.2379
      8 C         139.7768  143.4240  161.3142 C.ar    1  UNL1        0.1302
      9 C         138.9965  142.5752  162.2738 C.ar    1  UNL1        0.1477
     10 N         139.5009  142.3655  163.6708 N.ar    1  UNL1       -0.2292
     11 C         142.2987  142.3752  168.2992 C.ar    1  UNL1        0.1318
     12 C         140.8423  142.6429  168.0599 C.ar    1  UNL1        0.0344
     13 C         140.3379  142.8526  166.6630 C.ar    1  UNL1        0.0059
     14 C         141.2899  142.7947  165.5053 C.ar    1  UNL1        0.0370
     15 C         142.7463  142.5270  165.7446 C.ar    1  UNL1        0.1018
     16 N         143.2507  142.3172  167.1415 N.ar    1  UNL1       -0.2291
     17 C         141.8929  141.5980  170.7449 C.3     1  UNL1        0.1136
     18 N         142.8030  142.1654  169.6963 N.pl3   1  UNL1       -0.2897
     19 C         144.2175  142.5231  170.0446 C.3     1  UNL1        0.1136
     20 N         137.7119  141.9362  161.8364 N.pl3   1  UNL1       -0.3169
     21 H         136.8761  142.4565  161.8431 H       1  UNL1        0.1482
     22 C         137.7006  140.5047  161.3888 C.3     1  UNL1        0.0883
     23 C         138.7535  139.5565  161.8813 C.3     1  UNL1        0.0238
     24 C         138.4489  138.6194  163.0123 C.3     1  UNL1        0.0335
     25 C         138.6229  139.0745  164.4310 C.3     1  UNL1        0.1372
     26 O         137.8433  140.2494  164.9427 O.3     1  UNL1       -0.3820
     27 H         138.1270  141.0525  164.4786 H       1  UNL1        0.2104
@<TRIPOS>BOND
     1    17    18    1
     2    18    19    1
     3    18    11    1
     4    11    12   ar
     5    12    13   ar
     6    13    14   ar
     7    14     1    1
     8     1     2   ar
     9     2     3   ar
    10     3     4   ar
    11     4     5   ar
    12     5     6   ar
    13     6     7   ar
    14     7     8   ar
    15     8     9   ar
    16     9    20    1
    17    20    22    1
    18    22    23    1
    19    23    24    1
    20    24    25    1
    21    25    26    1
    22     9    10   ar
    23    14    15   ar
    24    15    16   ar
    25    16    11   ar
    26    10     1   ar
    27     8     3   ar
    28    20    21    1
    29    26    27    1
@<TRIPOS>MOLECULE
*****
 27 29 0 0 0
SMALL
GASTEIGER

@<TRIPOS>ATOM
      1 C         141.6814  142.1888  164.9168 C.ar    1  UNL1        0.0858
      2 C         142.6885  142.6214  165.9409 C.ar    1  UNL1        0.0399
      3 C         142.5904  142.1153  167.3496 C.ar    1  UNL1        0.1032
      4 N         143.5975  142.5478  168.3737 N.ar    1  UNL1       -0.2405
      5 C         143.4994  142.0418  169.7823 C.ar    1  UNL1        0.1195
      6 C         142.3943  141.1032  170.1668 C.ar    1  UNL1        0.1196
      7 N         141.3873  140.6707  169.1428 N.ar    1  UNL1       -0.2379
      8 C         141.4854  141.1767  167.7341 C.ar    1  UNL1        0.1302
      9 C         140.4783  140.7442  166.7100 C.ar    1  UNL1        0.1477
     10 N         140.5764  141.2502  165.3014 N.ar    1  UNL1       -0.2292
     11 C         141.9756  143.7070  160.6909 C.ar    1  UNL1        0.1318
     12 C         140.8642  142.7770  161.0781 C.ar    1  UNL1        0.0344
     13 C         140.7661  142.2709  162.4867 C.ar    1  UNL1        0.0059
     14 C         141.7795  142.6949  163.5081 C.ar    1  UNL1        0.0370
     15 C         142.8908  143.6249  163.1209 C.ar    1  UNL1        0.1018
     16 N         142.9889  144.1309  161.7123 N.ar    1  UNL1       -0.2291
     17 C         143.0463  143.5880  158.3267 C.3     1  UNL1        0.1136
     18 N         142.0736  144.2130  159.2822 N.pl3   1  UNL1       -0.2897
     19 C         141.1988  145.3441  158.8290 C.3     1  UNL1        0.1136
     20 N         139.3732  139.8056  167.0945 N.pl3   1  UNL1       -0.3169
     21 H         139.2627  139.5341  168.0344 H       1  UNL1        0.1482
     22 C         138.4366  139.2806  166.0471 C.3     1  UNL1        0.0883
     23 C         138.6962  137.9483  165.4087 C.3     1  UNL1        0.0238
     24 C         139.4160  137.8737  164.0948 C.3     1  UNL1        0.0335
     25 C         140.8346  137.3890  164.0432 C.3     1  UNL1        0.1372
     26 O         141.3686  136.7644  162.7884 O.3     1  UNL1       -0.3820
     27 H         140.9054  135.9288  162.6207 H       1  UNL1        0.2104
@<TRIPOS>BOND
     1    17    18    1
     2    18    19    1
     3    18    11    1
     4    11    12   ar
     5    12    13   ar
     6    13    14   ar
     7    14     1    1
     8     1     2   ar
     9     2     3   ar
    10     3     4   ar
    11     4     5   ar
    12     5     6   ar
    13     6     7   ar
    14     7     8   ar
    15     8     9   ar
    16     9    20    1
    17    20    22    1
    18    22    23    1
    19    23    24    1
    20    24    25    1
    21    25    26    1
    22     9    10   ar
    23    14    15   ar
    24    15    16   ar
    25    16    11   ar
    26    10     1   ar
    27     8     3   ar
    28    20    21    1
    29    26    27    1
@<TRIPOS>MOLECULE
*****
 27 29 0 0 0
SMALL
GASTEIGER

@<TRIPOS>ATOM
      1 C         141.1456  139.6685  164.6941 C.ar    1  UNL1        0.0858
      2 C         142.4348  139.8707  163.9544 C.ar    1  UNL1        0.0399
      3 C         142.5835  139.3579  162.5525 C.ar    1  UNL1        0.1032
      4 N         143.8727  139.5601  161.8128 N.ar    1  UNL1       -0.2405
      5 C         144.0214  139.0474  160.4111 C.ar    1  UNL1        0.1195
      6 C         142.8810  138.3324  159.7491 C.ar    1  UNL1        0.1196
      7 N         141.5919  138.1302  160.4888 N.ar    1  UNL1       -0.2379
      8 C         141.4431  138.6430  161.8905 C.ar    1  UNL1        0.1302
      9 C         140.1540  138.4408  162.6303 C.ar    1  UNL1        0.1477
     10 N         140.0052  138.9535  164.0320 N.ar    1  UNL1       -0.2292
     11 C         140.6992  141.2067  168.8994 C.ar    1  UNL1        0.1318
     12 C         141.8697  141.6346  168.0645 C.ar    1  UNL1        0.0344
     13 C         142.0185  141.1219  166.6628 C.ar    1  UNL1        0.0059
     14 C         140.9969  140.1813  166.0959 C.ar    1  UNL1        0.0370
     15 C         139.8264  139.7534  166.9307 C.ar    1  UNL1        0.1018
     16 N         139.6776  140.2661  168.3324 N.ar    1  UNL1       -0.2291
     17 C         141.1660  140.9678  171.4440 C.3     1  UNL1        0.1136
     18 N         140.5505  141.7195  170.3012 N.pl3   1  UNL1       -0.2897
     19 C         139.7861  142.9839  170.5601 C.3     1  UNL1        0.1136
     20 N         139.0135  137.7258  161.9682 N.pl3   1  UNL1       -0.3169
     21 H         139.1188  136.7895  161.6827 H       1  UNL1        0.1482
     22 C         137.7127  138.4374  161.7413 C.3     1  UNL1        0.0883
     23 C         137.6231  139.5268  160.7141 C.3     1  UNL1        0.0238
     24 C         138.0462  140.9231  161.0629 C.3     1  UNL1        0.0335
     25 C         137.8994  141.4219  162.4699 C.3     1  UNL1        0.1372
     26 O         136.5648  141.3610  163.1517 O.3     1  UNL1       -0.3820
     27 H         135.9448  141.9568  162.7028 H       1  UNL1        0.2104
@<TRIPOS>BOND
     1    17    18    1
     2    18    19    1
     3    18    11    1
     4    11    12   ar
     5    12    13   ar
     6    13    14   ar
     7    14     1    1
     8     1     2   ar
     9     2     3   ar
    10     3     4   ar
    11     4     5   ar
    12     5     6   ar
    13     6     7   ar
    14     7     8   ar
    15     8     9   ar
    16     9    20    1
    17    20    22    1
    18    22    23    1
    19    23    24    1
    20    24    25    1
    21    25    26    1
    22     9    10   ar
    23    14    15   ar
    24    15    16   ar
    25    16    11   ar
    26    10     1   ar
    27     8     3   ar
    28    20    21    1
    29    26    27    1
@<TRIPOS>MOLECULE
*****
 27 29 0 0 0
SMALL
GASTEIGER

@<TRIPOS>ATOM
      1 C         139.7584  140.6496  164.2085 C.ar    1  UNL1        0.0858
      2 C         139.9975  139.5786  163.1859 C.ar    1  UNL1        0.0399
      3 C         139.5718  139.7912  161.7634 C.ar    1  UNL1        0.1032
      4 N         139.8108  138.7201  160.7409 N.ar    1  UNL1       -0.2405
      5 C         139.3851  138.9328  159.3184 C.ar    1  UNL1        0.1195
      6 C         138.7203  140.2166  158.9184 C.ar    1  UNL1        0.1196
      7 N         138.4813  141.2877  159.9409 N.ar    1  UNL1       -0.2379
      8 C         138.9070  141.0750  161.3634 C.ar    1  UNL1        0.1302
      9 C         138.6679  142.1461  162.3860 C.ar    1  UNL1        0.1477
     10 N         139.0936  141.9334  163.8085 N.ar    1  UNL1       -0.2292
     11 C         141.0356  140.0117  168.4760 C.ar    1  UNL1        0.1318
     12 C         139.5825  139.9452  168.1101 C.ar    1  UNL1        0.0344
     13 C         139.1567  140.1578  166.6876 C.ar    1  UNL1        0.0059
     14 C         140.1841  140.4370  165.6310 C.ar    1  UNL1        0.0370
     15 C         141.6373  140.5035  165.9969 C.ar    1  UNL1        0.1018
     16 N         142.0631  140.2909  167.4194 N.ar    1  UNL1       -0.2291
     17 C         142.5411  138.8081  170.2181 C.3     1  UNL1        0.1136
     18 N         141.4614  139.7990  169.8985 N.pl3   1  UNL1       -0.2897
     19 C         140.8073  140.5773  171.0014 C.3     1  UNL1        0.1136
     20 N         138.0032  143.4299  161.9860 N.pl3   1  UNL1       -0.3169
     21 H         137.3883  143.4472  161.2173 H       1  UNL1        0.1482
     22 C         138.2751  144.6873  162.7573 C.3     1  UNL1        0.0883
     23 C         139.4613  145.5378  162.4111 C.3     1  UNL1        0.0238
     24 C         140.5157  145.0121  161.4826 C.3     1  UNL1        0.0335
     25 C         140.3077  145.0761  159.9985 C.3     1  UNL1        0.1372
     26 O         139.4283  144.0679  159.3202 O.3     1  UNL1       -0.3820
     27 H         139.8314  143.1884  159.3898 H       1  UNL1        0.2104
@<TRIPOS>BOND
     1    17    18    1
     2    18    19    1
     3    18    11    1
     4    11    12   ar
     5    12    13   ar
     6    13    14   ar
     7    14     1    1
     8     1     2   ar
     9     2     3   ar
    10     3     4   ar
    11     4     5   ar
    12     5     6   ar
    13     6     7   ar
    14     7     8   ar
    15     8     9   ar
    16     9    20    1
    17    20    22    1
    18    22    23    1
    19    23    24    1
    20    24    25    1
    21    25    26    1
    22     9    10   ar
    23    14    15   ar
    24    15    16   ar
    25    16    11   ar
    26    10     1   ar
    27     8     3   ar
    28    20    21    1
    29    26    27    1
