@<TRIPOS>MOLECULE
*****
 26 28 0 0 0
SMALL
GASTEIGER

@<TRIPOS>ATOM
      1 N         138.4037  143.3849  162.5176 N.3     1  UNL1       -0.2700
      2 C         137.6046  142.4409  163.3664 C.3     1  UNL1        0.0897
      3 C         137.3307  141.0472  162.8840 C.3     1  UNL1        0.0897
      4 N         137.8559  140.5975  161.5528 N.3     1  UNL1       -0.2700
      5 C         138.6550  141.5415  160.7041 C.3     1  UNL1        0.0897
      6 C         138.9288  142.9351  161.1864 C.3     1  UNL1        0.0897
      7 C         138.6775  144.7785  163.0000 C.3     1  UNL1        0.0770
      8 C         139.4646  144.9955  164.2583 C.3     1  UNL1        0.0467
      9 C         141.2571  143.3189  165.1105 C.ar    1  UNL1        0.1347
     10 C         142.6875  142.8739  165.1865 C.ar    1  UNL1        0.0366
     11 C         143.7559  143.6604  164.4865 C.ar    1  UNL1        0.0031
     12 C         143.3939  144.8919  163.7105 C.ar    1  UNL1       -0.0001
     13 C         141.9635  145.3369  163.6345 C.ar    1  UNL1       -0.0012
     14 C         140.8951  144.5504  164.3344 C.ar    1  UNL1        0.0132
     15 O         140.1887  142.5324  165.8105 O.3     1  UNL1       -0.4727
     16 C         140.1705  141.0361  165.7086 C.3     1  UNL1        0.2434
     17 F         137.8883  139.8118  165.9154 F       1  UNL1       -0.2302
     18 C         139.1919  140.2408  166.5209 C.3     1  UNL1        0.2403
     19 C         137.5820  139.2039  161.0705 C.3     1  UNL1        0.0769
     20 C         138.6993  138.2067  160.9850 C.3     1  UNL1        0.0437
     21 C         139.5679  137.9492  162.1806 C.ar    1  UNL1       -0.0208
     22 C         141.0611  138.0020  162.0481 C.ar    1  UNL1       -0.0042
     23 C         141.9296  137.7445  163.2436 C.ar    1  UNL1       -0.0003
     24 C         141.3050  137.4343  164.5716 C.ar    1  UNL1       -0.0000
     25 C         139.8118  137.3815  164.7040 C.ar    1  UNL1       -0.0003
     26 C         138.9432  137.6390  163.5086 C.ar    1  UNL1       -0.0042
@<TRIPOS>BOND
     1    17    18    1
     2    18    16    1
     3    16    15    1
     4    15     9    1
     5     9    10   ar
     6    10    11   ar
     7    11    12   ar
     8    12    13   ar
     9    13    14   ar
    10    14     8    1
    11     8     7    1
    12     7     1    1
    13     1     2    1
    14     2     3    1
    15     3     4    1
    16     4    19    1
    17    19    20    1
    18    20    21    1
    19    21    22   ar
    20    22    23   ar
    21    23    24   ar
    22    24    25   ar
    23    25    26   ar
    24     4     5    1
    25     5     6    1
    26    14     9   ar
    27     6     1    1
    28    26    21   ar
@<TRIPOS>MOLECULE
*****
 26 28 0 0 0
SMALL
GASTEIGER

@<TRIPOS>ATOM
      1 N         142.2067  143.5811  163.7896 N.3     1  UNL1       -0.2700
      2 C         142.0708  142.8318  162.4973 C.3     1  UNL1        0.0897
      3 C         140.7123  142.4361  161.9991 C.3     1  UNL1        0.0897
      4 N         139.4899  142.7897  162.7932 N.3     1  UNL1       -0.2700
      5 C         139.6258  143.5390  164.0855 C.3     1  UNL1        0.0897
      6 C         140.9842  143.9346  164.5837 C.3     1  UNL1        0.0897
      7 C         143.5650  143.9768  164.2879 C.3     1  UNL1        0.0770
      8 C         144.3048  143.0831  165.2387 C.3     1  UNL1        0.0467
      9 C         142.9108  141.3654  166.6012 C.ar    1  UNL1        0.1347
     10 C         142.4431  139.9580  166.8253 C.ar    1  UNL1        0.0366
     11 C         142.9017  138.8607  165.9112 C.ar    1  UNL1        0.0031
     12 C         143.8279  139.1708  164.7729 C.ar    1  UNL1       -0.0001
     13 C         144.2956  140.5783  164.5487 C.ar    1  UNL1       -0.0012
     14 C         143.8371  141.6756  165.4629 C.ar    1  UNL1        0.0132
     15 O         142.4523  142.4627  167.5154 O.3     1  UNL1       -0.4727
     16 C         142.2863  142.1966  168.9822 C.3     1  UNL1        0.2434
     17 F         144.7275  142.6276  169.7598 F       1  UNL1       -0.2302
     18 C         143.4730  141.8069  169.8128 C.3     1  UNL1        0.2403
     19 C         138.1316  142.3940  162.2950 C.3     1  UNL1        0.0769
     20 C         137.3035  141.4144  163.0726 C.3     1  UNL1        0.0437
     21 C         137.9435  140.1920  163.6609 C.ar    1  UNL1       -0.0208
     22 C         138.2191  140.1248  165.1338 C.ar    1  UNL1       -0.0042
     23 C         138.8591  138.9025  165.7222 C.ar    1  UNL1       -0.0003
     24 C         139.2235  137.7472  164.8376 C.ar    1  UNL1       -0.0000
     25 C         138.9479  137.8144  163.3646 C.ar    1  UNL1       -0.0003
     26 C         138.3079  139.0367  162.7763 C.ar    1  UNL1       -0.0042
@<TRIPOS>BOND
     1    17    18    1
     2    18    16    1
     3    16    15    1
     4    15     9    1
     5     9    10   ar
     6    10    11   ar
     7    11    12   ar
     8    12    13   ar
     9    13    14   ar
    10    14     8    1
    11     8     7    1
    12     7     1    1
    13     1     2    1
    14     2     3    1
    15     3     4    1
    16     4    19    1
    17    19    20    1
    18    20    21    1
    19    21    22   ar
    20    22    23   ar
    21    23    24   ar
    22    24    25   ar
    23    25    26   ar
    24     4     5    1
    25     5     6    1
    26    14     9   ar
    27     6     1    1
    28    26    21   ar
@<TRIPOS>MOLECULE
*****
 26 28 0 0 0
SMALL
GASTEIGER

@<TRIPOS>ATOM
      1 N         140.6987  138.9168  161.0074 N.3     1  UNL1       -0.2700
      2 C         141.8114  137.9836  161.3830 C.3     1  UNL1        0.0897
      3 C         143.1361  138.5341  161.8215 C.3     1  UNL1        0.0897
      4 N         143.3480  140.0177  161.8845 N.3     1  UNL1       -0.2700
      5 C         142.2354  140.9509  161.5089 C.3     1  UNL1        0.0897
      6 C         140.9107  140.4005  161.0704 C.3     1  UNL1        0.0897
      7 C         139.3741  138.3665  160.5688 C.3     1  UNL1        0.0770
      8 C         138.1805  138.4765  161.4706 C.3     1  UNL1        0.0467
      9 C         138.0058  140.1403  163.4584 C.ar    1  UNL1        0.1347
     10 C         138.1919  140.4487  164.9145 C.ar    1  UNL1        0.0366
     11 C         138.7388  139.4017  165.8390 C.ar    1  UNL1        0.0031
     12 C         139.0996  138.0463  165.3073 C.ar    1  UNL1       -0.0001
     13 C         138.9135  137.7379  163.8513 C.ar    1  UNL1       -0.0012
     14 C         138.3666  138.7849  162.9268 C.ar    1  UNL1        0.0132
     15 O         137.4589  141.1874  162.5340 O.3     1  UNL1       -0.4727
     16 C         138.1714  142.4983  162.3803 C.3     1  UNL1        0.2434
     17 F         138.2323  144.1185  164.4105 F       1  UNL1       -0.2302
     18 C         137.6566  143.7188  163.0842 C.3     1  UNL1        0.2403
     19 C         144.6727  140.5681  162.3231 C.3     1  UNL1        0.0769
     20 C         145.1324  140.3782  163.7382 C.3     1  UNL1        0.0437
     21 C         144.1282  140.3146  164.8508 C.ar    1  UNL1       -0.0208
     22 C         143.5186  141.5772  165.3839 C.ar    1  UNL1       -0.0042
     23 C         142.5146  141.5138  166.4964 C.ar    1  UNL1       -0.0003
     24 C         142.1201  140.1877  167.0759 C.ar    1  UNL1       -0.0000
     25 C         142.7298  138.9250  166.5428 C.ar    1  UNL1       -0.0003
     26 C         143.7338  138.9885  165.4303 C.ar    1  UNL1       -0.0042
@<TRIPOS>BOND
     1    17    18    1
     2    18    16    1
     3    16    15    1
     4    15     9    1
     5     9    10   ar
     6    10    11   ar
     7    11    12   ar
     8    12    13   ar
     9    13    14   ar
    10    14     8    1
    11     8     7    1
    12     7     1    1
    13     1     2    1
    14     2     3    1
    15     3     4    1
    16     4    19    1
    17    19    20    1
    18    20    21    1
    19    21    22   ar
    20    22    23   ar
    21    23    24   ar
    22    24    25   ar
    23    25    26   ar
    24     4     5    1
    25     5     6    1
    26    14     9   ar
    27     6     1    1
    28    26    21   ar
@<TRIPOS>MOLECULE
*****
 26 28 0 0 0
SMALL
GASTEIGER

@<TRIPOS>ATOM
      1 N         142.1509  138.7121  162.5256 N.3     1  UNL1       -0.2700
      2 C         142.9253  138.4835  163.7898 C.3     1  UNL1        0.0897
      3 C         143.8732  139.5335  164.2889 C.3     1  UNL1        0.0897
      4 N         144.0467  140.8120  163.5240 N.3     1  UNL1       -0.2700
      5 C         143.2723  141.0407  162.2599 C.3     1  UNL1        0.0897
      6 C         142.3244  139.9908  161.7607 C.3     1  UNL1        0.0897
      7 C         141.2030  137.6623  162.0264 C.3     1  UNL1        0.0770
      8 C         139.7237  137.8485  162.1902 C.3     1  UNL1        0.0467
      9 C         138.7617  139.8820  163.4900 C.ar    1  UNL1        0.1347
     10 C         138.2160  140.4748  164.7552 C.ar    1  UNL1        0.0366
     11 C         138.0864  139.6269  165.9858 C.ar    1  UNL1        0.0031
     12 C         138.5026  138.1862  165.9512 C.ar    1  UNL1       -0.0001
     13 C         139.0483  137.5935  164.6860 C.ar    1  UNL1       -0.0012
     14 C         139.1779  138.4413  163.4554 C.ar    1  UNL1        0.0132
     15 O         138.8913  140.7299  162.2595 O.3     1  UNL1       -0.4727
     16 C         139.0964  142.2102  162.3868 C.3     1  UNL1        0.2434
     17 F         137.4382  143.8868  163.4775 F       1  UNL1       -0.2302
     18 C         137.9269  143.1423  162.2704 C.3     1  UNL1        0.2403
     19 C         144.9946  141.8619  164.0232 C.3     1  UNL1        0.0769
     20 C         144.4925  142.9685  164.9026 C.3     1  UNL1        0.0437
     21 C         143.1586  142.8439  165.5773 C.ar    1  UNL1       -0.0208
     22 C         143.0601  142.2089  166.9327 C.ar    1  UNL1       -0.0042
     23 C         141.7263  142.0842  167.6073 C.ar    1  UNL1       -0.0003
     24 C         140.4909  142.5945  166.9266 C.ar    1  UNL1       -0.0000
     25 C         140.5894  143.2295  165.5713 C.ar    1  UNL1       -0.0003
     26 C         141.9232  143.3542  164.8966 C.ar    1  UNL1       -0.0042
@<TRIPOS>BOND
     1    17    18    1
     2    18    16    1
     3    16    15    1
     4    15     9    1
     5     9    10   ar
     6    10    11   ar
     7    11    12   ar
     8    12    13   ar
     9    13    14   ar
    10    14     8    1
    11     8     7    1
    12     7     1    1
    13     1     2    1
    14     2     3    1
    15     3     4    1
    16     4    19    1
    17    19    20    1
    18    20    21    1
    19    21    22   ar
    20    22    23   ar
    21    23    24   ar
    22    24    25   ar
    23    25    26   ar
    24     4     5    1
    25     5     6    1
    26    14     9   ar
    27     6     1    1
    28    26    21   ar
@<TRIPOS>MOLECULE
*****
 26 28 0 0 0
SMALL
GASTEIGER

@<TRIPOS>ATOM
      1 N         142.7339  140.1752  164.6564 N.3     1  UNL1       -0.2700
      2 C         142.9206  140.7299  163.2753 C.3     1  UNL1        0.0897
      3 C         142.9525  142.2143  163.0613 C.3     1  UNL1        0.0897
      4 N         142.7977  143.1438  164.2284 N.3     1  UNL1       -0.2700
      5 C         142.6110  142.5890  165.6095 C.3     1  UNL1        0.0897
      6 C         142.5791  141.1047  165.8235 C.3     1  UNL1        0.0897
      7 C         142.7020  138.6909  164.8704 C.3     1  UNL1        0.0770
      8 C         141.3874  137.9737  164.9572 C.3     1  UNL1        0.0467
      9 C         139.2642  139.3847  164.4555 C.ar    1  UNL1        0.1347
     10 C         138.1424  139.7608  163.5335 C.ar    1  UNL1        0.0366
     11 C         138.0220  139.1023  162.1912 C.ar    1  UNL1        0.0031
     12 C         139.0232  138.0675  161.7709 C.ar    1  UNL1       -0.0001
     13 C         140.1450  137.6914  162.6929 C.ar    1  UNL1       -0.0012
     14 C         140.2655  138.3499  164.0352 C.ar    1  UNL1        0.0132
     15 O         139.3847  140.0432  165.7978 O.3     1  UNL1       -0.4727
     16 C         138.8017  139.3833  167.0121 C.3     1  UNL1        0.2434
     17 F         137.9666  137.0302  166.2936 F       1  UNL1       -0.2302
     18 C         137.6880  138.3895  166.8637 C.3     1  UNL1        0.2403
     19 C         142.8297  144.6281  164.0144 C.3     1  UNL1        0.0769
     20 C         141.6626  145.3187  163.3733 C.3     1  UNL1        0.0437
     21 C         140.3017  144.6893  163.4180 C.ar    1  UNL1       -0.0208
     22 C         139.7539  144.0001  162.2035 C.ar    1  UNL1       -0.0042
     23 C         138.3931  143.3708  162.2481 C.ar    1  UNL1       -0.0003
     24 C         137.5801  143.4306  163.5072 C.ar    1  UNL1       -0.0000
     25 C         138.1278  144.1198  164.7217 C.ar    1  UNL1       -0.0003
     26 C         139.4887  144.7491  164.6771 C.ar    1  UNL1       -0.0042
@<TRIPOS>BOND
     1    17    18    1
     2    18    16    1
     3    16    15    1
     4    15     9    1
     5     9    10   ar
     6    10    11   ar
     7    11    12   ar
     8    12    13   ar
     9    13    14   ar
    10    14     8    1
    11     8     7    1
    12     7     1    1
    13     1     2    1
    14     2     3    1
    15     3     4    1
    16     4    19    1
    17    19    20    1
    18    20    21    1
    19    21    22   ar
    20    22    23   ar
    21    23    24   ar
    22    24    25   ar
    23    25    26   ar
    24     4     5    1
    25     5     6    1
    26    14     9   ar
    27     6     1    1
    28    26    21   ar
@<TRIPOS>MOLECULE
*****
 26 28 0 0 0
SMALL
GASTEIGER

@<TRIPOS>ATOM
      1 N         137.8660  140.2713  161.8566 N.3     1  UNL1       -0.2700
      2 C         137.6264  140.5307  163.3144 C.3     1  UNL1        0.0897
      3 C         137.6946  141.9310  163.8481 C.3     1  UNL1        0.0897
      4 N         138.0023  143.0717  162.9240 N.3     1  UNL1       -0.2700
      5 C         138.2419  142.8122  161.4661 C.3     1  UNL1        0.0897
      6 C         138.1737  141.4120  160.9325 C.3     1  UNL1        0.0897
      7 C         137.7978  138.8711  161.3229 C.3     1  UNL1        0.0770
      8 C         139.0545  138.0685  161.1600 C.3     1  UNL1        0.0467
      9 C         141.4563  138.4278  162.0834 C.ar    1  UNL1        0.1347
     10 C         142.4410  138.3393  163.2114 C.ar    1  UNL1        0.0366
     11 C         142.0089  137.8030  164.5439 C.ar    1  UNL1        0.0031
     12 C         140.5921  137.3552  164.7485 C.ar    1  UNL1       -0.0001
     13 C         139.6073  137.4437  163.6206 C.ar    1  UNL1       -0.0012
     14 C         140.0394  137.9800  162.2880 C.ar    1  UNL1        0.0132
     15 O         141.8883  138.9641  160.7509 O.3     1  UNL1       -0.4727
     16 C         141.7226  140.4220  160.4396 C.3     1  UNL1        0.2434
     17 F         141.0213  141.5251  162.6849 F       1  UNL1       -0.2302
     18 C         141.9505  141.4480  161.5098 C.3     1  UNL1        0.2403
     19 C         138.0705  144.4718  163.4577 C.3     1  UNL1        0.0769
     20 C         138.9307  144.7800  164.6472 C.3     1  UNL1        0.0437
     21 C         140.3510  144.2993  164.6905 C.ar    1  UNL1       -0.0208
     22 C         140.7284  143.1545  165.5833 C.ar    1  UNL1       -0.0042
     23 C         142.1486  142.6738  165.6265 C.ar    1  UNL1       -0.0003
     24 C         143.1913  143.3379  164.7770 C.ar    1  UNL1       -0.0000
     25 C         142.8139  144.4826  163.8843 C.ar    1  UNL1       -0.0003
     26 C         141.3937  144.9633  163.8410 C.ar    1  UNL1       -0.0042
@<TRIPOS>BOND
     1    17    18    1
     2    18    16    1
     3    16    15    1
     4    15     9    1
     5     9    10   ar
     6    10    11   ar
     7    11    12   ar
     8    12    13   ar
     9    13    14   ar
    10    14     8    1
    11     8     7    1
    12     7     1    1
    13     1     2    1
    14     2     3    1
    15     3     4    1
    16     4    19    1
    17    19    20    1
    18    20    21    1
    19    21    22   ar
    20    22    23   ar
    21    23    24   ar
    22    24    25   ar
    23    25    26   ar
    24     4     5    1
    25     5     6    1
    26    14     9   ar
    27     6     1    1
    28    26    21   ar
@<TRIPOS>MOLECULE
*****
 26 28 0 0 0
SMALL
GASTEIGER

@<TRIPOS>ATOM
      1 N         138.5123  140.0218  162.3621 N.3     1  UNL1       -0.2700
      2 C         139.7494  140.5436  161.6934 C.3     1  UNL1        0.0897
      3 C         140.0094  142.0202  161.6443 C.3     1  UNL1        0.0897
      4 N         139.0323  142.9748  162.2638 N.3     1  UNL1       -0.2700
      5 C         137.7951  142.4530  162.9325 C.3     1  UNL1        0.0897
      6 C         137.5351  140.9765  162.9817 C.3     1  UNL1        0.0897
      7 C         138.2523  138.5454  162.4113 C.3     1  UNL1        0.0770
      8 C         138.8170  137.7212  163.5302 C.3     1  UNL1        0.0467
      9 C         140.7676  138.7074  164.9347 C.ar    1  UNL1        0.1347
     10 C         141.2604  139.3759  166.1837 C.ar    1  UNL1        0.0366
     11 C         140.2956  139.7268  167.2774 C.ar    1  UNL1        0.0031
     12 C         138.8379  139.4091  167.1220 C.ar    1  UNL1       -0.0001
     13 C         138.3451  138.7406  165.8729 C.ar    1  UNL1       -0.0012
     14 C         139.3099  138.3898  164.7793 C.ar    1  UNL1        0.0132
     15 O         141.7324  138.3566  163.8411 O.3     1  UNL1       -0.4727
     16 C         142.7425  139.3651  163.3800 C.3     1  UNL1        0.2434
     17 F         144.7743  140.2717  164.7217 F       1  UNL1       -0.2302
     18 C         144.1745  139.2428  163.8098 C.3     1  UNL1        0.2403
     19 C         139.2923  144.4512  162.2146 C.3     1  UNL1        0.0769
     20 C         139.9664  145.1329  163.3682 C.3     1  UNL1        0.0437
     21 C         141.2442  144.5781  163.9246 C.ar    1  UNL1       -0.0208
     22 C         141.2099  143.3931  164.8436 C.ar    1  UNL1       -0.0042
     23 C         142.4876  142.8383  165.4000 C.ar    1  UNL1       -0.0003
     24 C         143.7996  143.4685  165.0373 C.ar    1  UNL1       -0.0000
     25 C         143.8339  144.6535  164.1183 C.ar    1  UNL1       -0.0003
     26 C         142.5561  145.2083  163.5619 C.ar    1  UNL1       -0.0042
@<TRIPOS>BOND
     1    17    18    1
     2    18    16    1
     3    16    15    1
     4    15     9    1
     5     9    10   ar
     6    10    11   ar
     7    11    12   ar
     8    12    13   ar
     9    13    14   ar
    10    14     8    1
    11     8     7    1
    12     7     1    1
    13     1     2    1
    14     2     3    1
    15     3     4    1
    16     4    19    1
    17    19    20    1
    18    20    21    1
    19    21    22   ar
    20    22    23   ar
    21    23    24   ar
    22    24    25   ar
    23    25    26   ar
    24     4     5    1
    25     5     6    1
    26    14     9   ar
    27     6     1    1
    28    26    21   ar
@<TRIPOS>MOLECULE
*****
 26 28 0 0 0
SMALL
GASTEIGER

@<TRIPOS>ATOM
      1 N         143.2151  143.2135  163.4356 N.3     1  UNL1       -0.2700
      2 C         143.7682  142.7812  164.7612 C.3     1  UNL1        0.0897
      3 C         143.8996  141.3210  165.0789 C.3     1  UNL1        0.0897
      4 N         143.4779  140.2933  164.0710 N.3     1  UNL1       -0.2700
      5 C         142.9248  140.7256  162.7454 C.3     1  UNL1        0.0897
      6 C         142.7934  142.1857  162.4277 C.3     1  UNL1        0.0897
      7 C         143.0837  144.6735  163.1179 C.3     1  UNL1        0.0770
      8 C         141.9656  145.4738  163.7173 C.3     1  UNL1        0.0467
      9 C         139.5563  145.2177  162.7794 C.ar    1  UNL1        0.1347
     10 C         138.1804  144.6284  162.8764 C.ar    1  UNL1        0.0366
     11 C         137.8377  143.7059  164.0084 C.ar    1  UNL1        0.0031
     12 C         138.8710  143.3726  165.0434 C.ar    1  UNL1       -0.0001
     13 C         140.2469  143.9620  164.9464 C.ar    1  UNL1       -0.0012
     14 C         140.5896  144.8845  163.8143 C.ar    1  UNL1        0.0132
     15 O         139.8990  146.1403  161.6473 O.3     1  UNL1       -0.4727
     16 C         140.2109  145.5800  160.2914 C.3     1  UNL1        0.2434
     17 F         139.9421  143.0014  160.4609 F       1  UNL1       -0.2302
     18 C         140.7905  144.2024  160.1642 C.3     1  UNL1        0.2403
     19 C         143.6093  138.8333  164.3886 C.3     1  UNL1        0.0769
     20 C         142.7673  138.2221  165.4692 C.3     1  UNL1        0.0437
     21 C         141.3038  138.5410  165.5503 C.ar    1  UNL1       -0.0208
     22 C         140.3162  137.7387  164.7559 C.ar    1  UNL1       -0.0042
     23 C         138.8528  138.0576  164.8370 C.ar    1  UNL1       -0.0003
     24 C         138.3769  139.1787  165.7125 C.ar    1  UNL1       -0.0000
     25 C         139.3645  139.9810  166.5068 C.ar    1  UNL1       -0.0003
     26 C         140.8279  139.6622  166.4258 C.ar    1  UNL1       -0.0042
@<TRIPOS>BOND
     1    17    18    1
     2    18    16    1
     3    16    15    1
     4    15     9    1
     5     9    10   ar
     6    10    11   ar
     7    11    12   ar
     8    12    13   ar
     9    13    14   ar
    10    14     8    1
    11     8     7    1
    12     7     1    1
    13     1     2    1
    14     2     3    1
    15     3     4    1
    16     4    19    1
    17    19    20    1
    18    20    21    1
    19    21    22   ar
    20    22    23   ar
    21    23    24   ar
    22    24    25   ar
    23    25    26   ar
    24     4     5    1
    25     5     6    1
    26    14     9   ar
    27     6     1    1
    28    26    21   ar
@<TRIPOS>MOLECULE
*****
 26 28 0 0 0
SMALL
GASTEIGER

@<TRIPOS>ATOM
      1 N         139.4953  142.8074  162.6219 N.3     1  UNL1       -0.2700
      2 C         139.6148  143.6658  163.8462 C.3     1  UNL1        0.0897
      3 C         140.9653  144.1219  164.3135 C.3     1  UNL1        0.0897
      4 N         142.1961  143.7196  163.5565 N.3     1  UNL1       -0.2700
      5 C         142.0766  142.8612  162.3321 C.3     1  UNL1        0.0897
      6 C         140.7262  142.4052  161.8649 C.3     1  UNL1        0.0897
      7 C         138.1449  142.3514  162.1547 C.3     1  UNL1        0.0770
      8 C         137.3453  141.3960  162.9902 C.3     1  UNL1        0.0467
      9 C         138.4291  139.0348  163.0102 C.ar    1  UNL1        0.1347
     10 C         139.1190  137.9284  163.7517 C.ar    1  UNL1        0.0366
     11 C         139.4151  138.0767  165.2147 C.ar    1  UNL1        0.0031
     12 C         139.0213  139.3314  165.9362 C.ar    1  UNL1       -0.0001
     13 C         138.3314  140.4378  165.1946 C.ar    1  UNL1       -0.0012
     14 C         138.0353  140.2895  163.7317 C.ar    1  UNL1        0.0132
     15 O         138.1329  138.8865  161.5472 O.3     1  UNL1       -0.4727
     16 C         139.1708  138.3174  160.6259 C.3     1  UNL1        0.2434
     17 F         141.4874  139.0029  161.5817 F       1  UNL1       -0.2302
     18 C         140.4899  139.0124  160.4615 C.3     1  UNL1        0.2403
     19 C         143.5465  144.1757  164.0237 C.3     1  UNL1        0.0769
     20 C         144.3126  143.3550  165.0185 C.3     1  UNL1        0.0437
     21 C         144.1175  141.8687  165.0734 C.ar    1  UNL1       -0.0208
     22 C         143.0681  141.2827  165.9708 C.ar    1  UNL1       -0.0042
     23 C         142.8729  139.7965  166.0257 C.ar    1  UNL1       -0.0003
     24 C         143.7273  138.8963  165.1833 C.ar    1  UNL1       -0.0000
     25 C         144.7768  139.4823  164.2860 C.ar    1  UNL1       -0.0003
     26 C         144.9719  140.9685  164.2310 C.ar    1  UNL1       -0.0042
@<TRIPOS>BOND
     1    17    18    1
     2    18    16    1
     3    16    15    1
     4    15     9    1
     5     9    10   ar
     6    10    11   ar
     7    11    12   ar
     8    12    13   ar
     9    13    14   ar
    10    14     8    1
    11     8     7    1
    12     7     1    1
    13     1     2    1
    14     2     3    1
    15     3     4    1
    16     4    19    1
    17    19    20    1
    18    20    21    1
    19    21    22   ar
    20    22    23   ar
    21    23    24   ar
    22    24    25   ar
    23    25    26   ar
    24     4     5    1
    25     5     6    1
    26    14     9   ar
    27     6     1    1
    28    26    21   ar
