@<TRIPOS>MOLECULE
*****
 30 32 0 0 0
SMALL
GASTEIGER

@<TRIPOS>ATOM
      1 C         138.1886  142.1754  162.1840 C.ar    1  UNL1        0.1593
      2 C         137.8195  142.7187  163.5325 C.ar    1  UNL1        0.1357
      3 N         138.0813  141.9061  164.7658 N.ar    1  UNL1       -0.2390
      4 C         138.7122  140.5502  164.6507 C.ar    1  UNL1        0.1030
      5 C         139.0884  139.5273  165.6814 C.ar    1  UNL1        0.0895
      6 C         139.6899  138.3518  164.9699 C.ar    1  UNL1        0.0823
      7 N         139.6856  138.6481  163.4994 N.ar    1  UNL1       -0.3189
      8 C         139.0813  140.0068  163.3022 C.ar    1  UNL1        0.0814
      9 C         138.8195  140.8194  162.0689 C.ar    1  UNL1        0.0572
     10 C         138.8966  139.6572  167.1634 C.2     1  UNL1        0.2489
     11 O         137.8869  138.7997  167.8670 O.2     1  UNL1       -0.2700
     12 N         139.7145  140.6447  167.9418 N.am    1  UNL1       -0.2984
     13 H         140.3772  141.2076  167.4800 H       1  UNL1        0.1498
     14 C         139.5227  140.7746  169.4238 C.3     1  UNL1        0.1215
     15 C         140.3658  139.9641  170.3630 C.3     1  UNL1        0.1583
     16 O         139.7205  139.2011  171.4817 O.3     1  UNL1       -0.3802
     17 H         139.3271  139.8237  172.1129 H       1  UNL1        0.2105
     18 C         138.4826  142.5460  159.6294 C.3     1  UNL1        0.2525
     19 O         137.9268  142.9880  160.9507 O.3     1  UNL1       -0.4698
     20 C         140.1959  137.7444  162.4164 C.3     1  UNL1        0.1517
     21 C         141.4761  138.0728  161.7069 C.ar    1  UNL1        0.0823
     22 N         142.7835  137.9774  162.4359 N.ar    1  UNL1       -0.2266
     23 C         144.0636  138.3057  161.7264 C.ar    1  UNL1        0.1998
     24 N         144.0364  138.7296  160.2878 N.ar    1  UNL1       -0.2093
     25 C         142.7289  138.8250  159.5587 C.ar    1  UNL1        0.1307
     26 C         141.4487  138.4966  160.2682 C.ar    1  UNL1        0.0253
     27 C         140.1414  138.5921  159.5391 C.3     1  UNL1        0.0353
     28 N         142.7016  139.2488  158.1201 N.pl3   1  UNL1       -0.2899
     29 C         142.7165  138.2151  157.0333 C.3     1  UNL1        0.1136
     30 C         142.6595  140.7064  157.7683 C.3     1  UNL1        0.1136
@<TRIPOS>BOND
     1    18    19    1
     2    19     1    1
     3     1     2   ar
     4     2     3   ar
     5     3     4   ar
     6     4     5   ar
     7     5    10    1
     8    10    11    2
     9    10    12   am
    10    12    14    1
    11    14    15    1
    12    15    16    1
    13     5     6   ar
    14     6     7   ar
    15     7    20    1
    16    20    21    1
    17    21    22   ar
    18    22    23   ar
    19    23    24   ar
    20    24    25   ar
    21    25    28    1
    22    28    29    1
    23    28    30    1
    24    25    26   ar
    25    26    27    1
    26     7     8   ar
    27     8     9   ar
    28     9     1   ar
    29     8     4   ar
    30    26    21   ar
    31    12    13    1
    32    16    17    1
@<TRIPOS>MOLECULE
*****
 30 32 0 0 0
SMALL
GASTEIGER

@<TRIPOS>ATOM
      1 C         143.1139  138.7560  163.7948 C.ar    1  UNL1        0.1593
      2 C         143.7736  138.8832  165.1358 C.ar    1  UNL1        0.1357
      3 N         142.9566  139.2371  166.3430 N.ar    1  UNL1       -0.2390
      4 C         141.4799  139.4637  166.2091 C.ar    1  UNL1        0.1030
      5 C         140.4243  139.8218  167.2128 C.ar    1  UNL1        0.0895
      6 C         139.1122  139.9159  166.4921 C.ar    1  UNL1        0.0823
      7 N         139.3568  139.6159  165.0429 N.ar    1  UNL1       -0.3189
      8 C         140.8202  139.3365  164.8680 C.ar    1  UNL1        0.0814
      9 C         141.6372  138.9826  163.6609 C.ar    1  UNL1        0.0572
     10 C         140.6425  140.0464  168.6798 C.2     1  UNL1        0.2489
     11 O         139.4875  139.9555  169.6325 O.2     1  UNL1       -0.2700
     12 N         142.0158  140.3619  169.1941 N.am    1  UNL1       -0.2984
     13 H         142.7740  140.4216  168.5688 H       1  UNL1        0.1498
     14 C         142.2341  140.5865  170.6610 C.3     1  UNL1        0.1215
     15 C         141.8349  141.8894  171.2879 C.3     1  UNL1        0.1583
     16 O         140.4544  142.0599  171.8491 O.3     1  UNL1       -0.3802
     17 H         139.8055  142.0206  171.1292 H       1  UNL1        0.2105
     18 C         143.2508  137.9789  161.3194 C.3     1  UNL1        0.2525
     19 O         143.9309  138.4021  162.5876 O.3     1  UNL1       -0.4698
     20 C         138.3202  139.5985  163.9589 C.3     1  UNL1        0.1517
     21 C         138.2595  140.7169  162.9611 C.ar    1  UNL1        0.0823
     22 N         137.8713  142.0965  163.4036 N.ar    1  UNL1       -0.2266
     23 C         137.8106  143.2149  162.4058 C.ar    1  UNL1        0.1998
     24 N         138.1382  142.9536  160.9655 N.ar    1  UNL1       -0.2093
     25 C         138.5264  141.5739  160.5231 C.ar    1  UNL1        0.1307
     26 C         138.5871  140.4555  161.5208 C.ar    1  UNL1        0.0253
     27 C         138.9754  139.0759  161.0783 C.3     1  UNL1        0.0353
     28 N         138.8540  141.3126  159.0828 N.pl3   1  UNL1       -0.2899
     29 C         140.2552  141.5090  158.5847 C.3     1  UNL1        0.1136
     30 C         137.7804  140.8550  158.1405 C.3     1  UNL1        0.1136
@<TRIPOS>BOND
     1    18    19    1
     2    19     1    1
     3     1     2   ar
     4     2     3   ar
     5     3     4   ar
     6     4     5   ar
     7     5    10    1
     8    10    11    2
     9    10    12   am
    10    12    14    1
    11    14    15    1
    12    15    16    1
    13     5     6   ar
    14     6     7   ar
    15     7    20    1
    16    20    21    1
    17    21    22   ar
    18    22    23   ar
    19    23    24   ar
    20    24    25   ar
    21    25    28    1
    22    28    29    1
    23    28    30    1
    24    25    26   ar
    25    26    27    1
    26     7     8   ar
    27     8     9   ar
    28     9     1   ar
    29     8     4   ar
    30    26    21   ar
    31    12    13    1
    32    16    17    1
@<TRIPOS>MOLECULE
*****
 30 32 0 0 0
SMALL
GASTEIGER

@<TRIPOS>ATOM
      1 C         140.5727  139.3405  163.3896 C.ar    1  UNL1        0.1593
      2 C         140.5373  138.8268  164.7984 C.ar    1  UNL1        0.1357
      3 N         141.2374  139.5812  165.8896 N.ar    1  UNL1       -0.2390
      4 C         141.9730  140.8493  165.5719 C.ar    1  UNL1        0.1030
      5 C         142.7504  141.8011  166.4319 C.ar    1  UNL1        0.0895
      6 C         143.2664  142.9030  165.5546 C.ar    1  UNL1        0.0823
      7 N         142.8078  142.6322  164.1523 N.ar    1  UNL1       -0.3189
      8 C         142.0085  141.3629  164.1631 C.ar    1  UNL1        0.0814
      9 C         141.3083  140.6085  163.0719 C.ar    1  UNL1        0.0572
     10 C         142.9729  141.6734  167.9098 C.2     1  UNL1        0.2489
     11 O         143.6896  142.7588  168.6570 O.2     1  UNL1       -0.2700
     12 N         142.4786  140.4603  168.6406 N.am    1  UNL1       -0.2984
     13 H         142.0082  139.7479  168.1503 H       1  UNL1        0.1498
     14 C         142.7011  140.3326  170.1185 C.3     1  UNL1        0.1215
     15 C         141.7668  141.0073  171.0787 C.3     1  UNL1        0.1583
     16 O         142.2250  142.2076  171.8528 O.3     1  UNL1       -0.3802
     17 H         142.9287  141.9467  172.4673 H       1  UNL1        0.2105
     18 C         138.4947  138.0400  162.5290 C.3     1  UNL1        0.2525
     19 O         139.8726  138.5860  162.2984 O.3     1  UNL1       -0.4698
     20 C         143.0976  143.4815  162.9504 C.3     1  UNL1        0.1517
     21 C         141.9921  144.2538  162.2936 C.ar    1  UNL1        0.0823
     22 N         141.0805  145.1099  163.1218 N.ar    1  UNL1       -0.2266
     23 C         139.9750  145.8823  162.4650 C.ar    1  UNL1        0.1998
     24 N         139.7811  145.7985  160.9800 N.ar    1  UNL1       -0.2093
     25 C         140.6929  144.9424  160.1517 C.ar    1  UNL1        0.1307
     26 C         141.7984  144.1701  160.8085 C.ar    1  UNL1        0.0253
     27 C         142.7100  143.3140  159.9802 C.3     1  UNL1        0.0353
     28 N         140.4990  144.8587  158.6667 N.pl3   1  UNL1       -0.2899
     29 C         139.6264  143.7871  158.0834 C.3     1  UNL1        0.1136
     30 C         141.1778  145.8465  157.7648 C.3     1  UNL1        0.1136
@<TRIPOS>BOND
     1    18    19    1
     2    19     1    1
     3     1     2   ar
     4     2     3   ar
     5     3     4   ar
     6     4     5   ar
     7     5    10    1
     8    10    11    2
     9    10    12   am
    10    12    14    1
    11    14    15    1
    12    15    16    1
    13     5     6   ar
    14     6     7   ar
    15     7    20    1
    16    20    21    1
    17    21    22   ar
    18    22    23   ar
    19    23    24   ar
    20    24    25   ar
    21    25    28    1
    22    28    29    1
    23    28    30    1
    24    25    26   ar
    25    26    27    1
    26     7     8   ar
    27     8     9   ar
    28     9     1   ar
    29     8     4   ar
    30    26    21   ar
    31    12    13    1
    32    16    17    1
@<TRIPOS>MOLECULE
*****
 30 32 0 0 0
SMALL
GASTEIGER

@<TRIPOS>ATOM
      1 C         138.4901  143.9735  163.0438 C.ar    1  UNL1        0.1593
      2 C         138.7850  144.0907  164.5098 C.ar    1  UNL1        0.1357
      3 N         138.8503  142.8585  165.3627 N.ar    1  UNL1       -0.2390
      4 C         138.6207  141.5090  164.7495 C.ar    1  UNL1        0.1030
      5 C         138.6215  140.1276  165.3340 C.ar    1  UNL1        0.0895
      6 C         138.3272  139.1565  164.2293 C.ar    1  UNL1        0.0823
      7 N         138.1444  139.9378  162.9619 N.ar    1  UNL1       -0.3189
      8 C         138.3258  141.3917  163.2835 C.ar    1  UNL1        0.0814
      9 C         138.2605  142.6240  162.4306 C.ar    1  UNL1        0.0572
     10 C         138.8727  139.7785  166.7711 C.2     1  UNL1        0.2489
     11 O         138.0303  138.7387  167.4486 O.2     1  UNL1       -0.2700
     12 N         139.9663  140.4693  167.5306 N.am    1  UNL1       -0.2984
     13 H         140.5192  141.1518  167.0859 H       1  UNL1        0.1498
     14 C         140.2174  140.1203  168.9676 C.3     1  UNL1        0.1215
     15 C         139.2754  140.6002  170.0317 C.3     1  UNL1        0.1583
     16 O         138.0210  139.8318  170.3251 O.3     1  UNL1       -0.3802
     17 H         137.4308  139.8706  169.5563 H       1  UNL1        0.2105
     18 C         139.6642  146.0141  161.9451 C.3     1  UNL1        0.2525
     19 O         138.4248  145.2057  162.1910 O.3     1  UNL1       -0.4698
     20 C         137.8346  139.3657  161.6104 C.3     1  UNL1        0.1517
     21 C         138.6972  139.7128  160.4334 C.ar    1  UNL1        0.0823
     22 N         138.1840  140.6451  159.3764 N.ar    1  UNL1       -0.2266
     23 C         139.0466  140.9923  158.1993 C.ar    1  UNL1        0.1998
     24 N         140.4225  140.4071  158.0793 N.ar    1  UNL1       -0.2093
     25 C         140.9358  139.4748  159.1364 C.ar    1  UNL1        0.1307
     26 C         140.0732  139.1276  160.3134 C.ar    1  UNL1        0.0253
     27 C         140.5865  138.1952  161.3704 C.3     1  UNL1        0.0353
     28 N         142.3117  138.8896  159.0163 N.pl3   1  UNL1       -0.2899
     29 C         143.4707  139.5520  159.7003 C.3     1  UNL1        0.1136
     30 C         142.5286  137.6420  158.2123 C.3     1  UNL1        0.1136
@<TRIPOS>BOND
     1    18    19    1
     2    19     1    1
     3     1     2   ar
     4     2     3   ar
     5     3     4   ar
     6     4     5   ar
     7     5    10    1
     8    10    11    2
     9    10    12   am
    10    12    14    1
    11    14    15    1
    12    15    16    1
    13     5     6   ar
    14     6     7   ar
    15     7    20    1
    16    20    21    1
    17    21    22   ar
    18    22    23   ar
    19    23    24   ar
    20    24    25   ar
    21    25    28    1
    22    28    29    1
    23    28    30    1
    24    25    26   ar
    25    26    27    1
    26     7     8   ar
    27     8     9   ar
    28     9     1   ar
    29     8     4   ar
    30    26    21   ar
    31    12    13    1
    32    16    17    1
@<TRIPOS>MOLECULE
*****
 30 32 0 0 0
SMALL
GASTEIGER

@<TRIPOS>ATOM
      1 C         143.3064  139.0234  163.6186 C.ar    1  UNL1        0.1593
      2 C         143.7117  138.7866  165.0433 C.ar    1  UNL1        0.1357
      3 N         142.7662  139.1236  166.1579 N.ar    1  UNL1       -0.2390
      4 C         141.4154  139.6974  165.8480 C.ar    1  UNL1        0.1030
      5 C         140.2798  140.1243  166.7300 C.ar    1  UNL1        0.0895
      6 C         139.1726  140.6250  165.8505 C.ar    1  UNL1        0.0823
      7 N         139.6240  140.5075  164.4249 N.ar    1  UNL1       -0.3189
      8 C         141.0101  139.9342  164.4234 C.ar    1  UNL1        0.0814
      9 C         141.9556  139.5972  163.3087 C.ar    1  UNL1        0.0572
     10 C         140.2556  140.0616  168.2285 C.2     1  UNL1        0.2489
     11 O         138.9697  139.7778  168.9467 O.2     1  UNL1       -0.2700
     12 N         141.5174  140.2826  169.0089 N.am    1  UNL1       -0.2984
     13 H         142.3614  140.4688  168.5376 H       1  UNL1        0.1498
     14 C         141.4932  140.2198  170.5074 C.3     1  UNL1        0.1215
     15 C         141.0426  141.4104  171.3008 C.3     1  UNL1        0.1583
     16 O         142.0369  142.1986  172.1008 O.3     1  UNL1       -0.3802
     17 H         142.3840  141.6468  172.8192 H       1  UNL1        0.2105
     18 C         143.7716  137.8877  161.3288 C.3     1  UNL1        0.2525
     19 O         144.2519  138.6865  162.5040 O.3     1  UNL1       -0.4698
     20 C         138.8288  140.8953  163.2135 C.3     1  UNL1        0.1517
     21 C         139.0079  142.2532  162.6020 C.ar    1  UNL1        0.0823
     22 N         138.5592  143.4759  163.3459 N.ar    1  UNL1       -0.2266
     23 C         138.7382  144.8338  162.7344 C.ar    1  UNL1        0.1998
     24 N         139.3660  144.9690  161.3788 N.ar    1  UNL1       -0.2093
     25 C         139.8147  143.7462  160.6348 C.ar    1  UNL1        0.1307
     26 C         139.6357  142.3883  161.2464 C.ar    1  UNL1        0.0253
     27 C         140.0844  141.1656  160.5023 C.3     1  UNL1        0.0353
     28 N         140.4425  143.8814  159.2792 N.pl3   1  UNL1       -0.2899
     29 C         139.5937  143.7832  158.0464 C.3     1  UNL1        0.1136
     30 C         141.9191  144.1148  159.1564 C.3     1  UNL1        0.1136
@<TRIPOS>BOND
     1    18    19    1
     2    19     1    1
     3     1     2   ar
     4     2     3   ar
     5     3     4   ar
     6     4     5   ar
     7     5    10    1
     8    10    11    2
     9    10    12   am
    10    12    14    1
    11    14    15    1
    12    15    16    1
    13     5     6   ar
    14     6     7   ar
    15     7    20    1
    16    20    21    1
    17    21    22   ar
    18    22    23   ar
    19    23    24   ar
    20    24    25   ar
    21    25    28    1
    22    28    29    1
    23    28    30    1
    24    25    26   ar
    25    26    27    1
    26     7     8   ar
    27     8     9   ar
    28     9     1   ar
    29     8     4   ar
    30    26    21   ar
    31    12    13    1
    32    16    17    1
@<TRIPOS>MOLECULE
*****
 30 32 0 0 0
SMALL
GASTEIGER

@<TRIPOS>ATOM
      1 C         140.6459  143.9279  164.1346 C.ar    1  UNL1        0.1593
      2 C         139.9542  143.6514  165.4365 C.ar    1  UNL1        0.1357
      3 N         140.4752  142.5821  166.3503 N.ar    1  UNL1       -0.2390
      4 C         141.6880  141.7893  165.9622 C.ar    1  UNL1        0.1030
      5 C         142.4262  140.6813  166.6532 C.ar    1  UNL1        0.0895
      6 C         143.5743  140.2731  165.7783 C.ar    1  UNL1        0.0823
      7 N         143.5455  141.1287  164.5466 N.ar    1  UNL1       -0.3189
      8 C         142.3797  142.0658  164.6603 C.ar    1  UNL1        0.0814
      9 C         141.8587  143.1351  163.7465 C.ar    1  UNL1        0.0572
     10 C         142.0777  140.0862  167.9852 C.2     1  UNL1        0.2489
     11 O         142.9735  139.0538  168.6029 O.2     1  UNL1       -0.2700
     12 N         140.8333  140.5234  168.6995 N.am    1  UNL1       -0.2984
     13 H         140.2453  141.2010  168.2941 H       1  UNL1        0.1498
     14 C         140.4847  139.9282  170.0315 C.3     1  UNL1        0.1215
     15 C         140.8028  140.6749  171.2930 C.3     1  UNL1        0.1583
     16 O         142.2103  140.7080  171.8104 O.3     1  UNL1       -0.3802
     17 H         142.4772  139.8149  172.0788 H       1  UNL1        0.2105
     18 C         138.7247  144.9130  162.6895 C.3     1  UNL1        0.2525
     19 O         140.1249  144.9972  163.2207 O.3     1  UNL1       -0.4698
     20 C         144.5127  141.0594  163.4022 C.3     1  UNL1        0.1517
     21 C         144.2000  140.2097  162.2063 C.ar    1  UNL1        0.0823
     22 N         144.0765  138.7222  162.3548 N.ar    1  UNL1       -0.2266
     23 C         143.7638  137.8724  161.1590 C.ar    1  UNL1        0.1998
     24 N         143.5745  138.5101  159.8145 N.ar    1  UNL1       -0.2093
     25 C         143.6980  139.9977  159.6661 C.ar    1  UNL1        0.1307
     26 C         144.0108  140.8475  160.8619 C.ar    1  UNL1        0.0253
     27 C         144.1342  142.3350  160.7133 C.3     1  UNL1        0.0353
     28 N         143.5088  140.6354  158.3216 N.pl3   1  UNL1       -0.2899
     29 C         144.6805  140.8057  157.4006 C.3     1  UNL1        0.1136
     30 C         142.1479  141.1029  157.8981 C.3     1  UNL1        0.1136
@<TRIPOS>BOND
     1    18    19    1
     2    19     1    1
     3     1     2   ar
     4     2     3   ar
     5     3     4   ar
     6     4     5   ar
     7     5    10    1
     8    10    11    2
     9    10    12   am
    10    12    14    1
    11    14    15    1
    12    15    16    1
    13     5     6   ar
    14     6     7   ar
    15     7    20    1
    16    20    21    1
    17    21    22   ar
    18    22    23   ar
    19    23    24   ar
    20    24    25   ar
    21    25    28    1
    22    28    29    1
    23    28    30    1
    24    25    26   ar
    25    26    27    1
    26     7     8   ar
    27     8     9   ar
    28     9     1   ar
    29     8     4   ar
    30    26    21   ar
    31    12    13    1
    32    16    17    1
@<TRIPOS>MOLECULE
*****
 30 32 0 0 0
SMALL
GASTEIGER

@<TRIPOS>ATOM
      1 C         138.9732  138.9512  163.8828 C.ar    1  UNL1        0.1593
      2 C         138.4291  139.0351  165.2780 C.ar    1  UNL1        0.1357
      3 N         139.3480  139.3366  166.4246 N.ar    1  UNL1       -0.2390
      4 C         140.8112  139.5541  166.1759 C.ar    1  UNL1        0.1030
      5 C         141.9510  139.8651  167.1000 C.ar    1  UNL1        0.0895
      6 C         143.1997  139.9733  166.2759 C.ar    1  UNL1        0.0823
      7 N         142.8315  139.7293  164.8424 N.ar    1  UNL1       -0.3189
      8 C         141.3553  139.4702  164.7806 C.ar    1  UNL1        0.0814
      9 C         140.4363  139.1688  163.6341 C.ar    1  UNL1        0.0572
     10 C         141.8584  140.0375  168.5872 C.2     1  UNL1        0.2489
     11 O         143.1065  140.0579  169.4190 O.2     1  UNL1       -0.2700
     12 N         140.5178  140.1895  169.2426 N.am    1  UNL1       -0.2984
     13 H         139.6986  140.1761  168.6967 H       1  UNL1        0.1498
     14 C         140.4252  140.3619  170.7298 C.3     1  UNL1        0.1215
     15 C         140.7379  141.6906  171.3517 C.3     1  UNL1        0.1583
     16 O         142.1494  142.0275  171.7312 O.3     1  UNL1       -0.3802
     17 H         142.4407  141.4408  172.4467 H       1  UNL1        0.2105
     18 C         138.1809  139.4150  161.4523 C.3     1  UNL1        0.2525
     19 O         138.0542  138.6498  162.7362 O.3     1  UNL1       -0.4698
     20 C         143.7740  139.7421  163.6756 C.3     1  UNL1        0.1517
     21 C         143.8802  140.9629  162.8106 C.ar    1  UNL1        0.0823
     22 N         144.2475  142.2838  163.4193 N.ar    1  UNL1       -0.2266
     23 C         144.3536  143.5046  162.5543 C.ar    1  UNL1        0.1998
     24 N         144.0926  143.4047  161.0806 N.ar    1  UNL1       -0.2093
     25 C         143.7253  142.0838  160.4719 C.ar    1  UNL1        0.1307
     26 C         143.6191  140.8629  161.3369 C.ar    1  UNL1        0.0253
     27 C         143.2519  139.5421  160.7281 C.3     1  UNL1        0.0353
     28 N         143.4642  141.9839  158.9982 N.pl3   1  UNL1       -0.2899
     29 C         142.0679  142.1360  158.4718 C.3     1  UNL1        0.1136
     30 C         144.5995  141.7318  158.0508 C.3     1  UNL1        0.1136
@<TRIPOS>BOND
     1    18    19    1
     2    19     1    1
     3     1     2   ar
     4     2     3   ar
     5     3     4   ar
     6     4     5   ar
     7     5    10    1
     8    10    11    2
     9    10    12   am
    10    12    14    1
    11    14    15    1
    12    15    16    1
    13     5     6   ar
    14     6     7   ar
    15     7    20    1
    16    20    21    1
    17    21    22   ar
    18    22    23   ar
    19    23    24   ar
    20    24    25   ar
    21    25    28    1
    22    28    29    1
    23    28    30    1
    24    25    26   ar
    25    26    27    1
    26     7     8   ar
    27     8     9   ar
    28     9     1   ar
    29     8     4   ar
    30    26    21   ar
    31    12    13    1
    32    16    17    1
@<TRIPOS>MOLECULE
*****
 30 32 0 0 0
SMALL
GASTEIGER

@<TRIPOS>ATOM
      1 C         139.2305  143.5724  163.2303 C.ar    1  UNL1        0.1593
      2 C         139.4525  144.2081  164.5706 C.ar    1  UNL1        0.1357
      3 N         139.5953  143.3507  165.7931 N.ar    1  UNL1       -0.2390
      4 C         139.5159  141.8575  165.6753 C.ar    1  UNL1        0.1030
      5 C         139.6194  140.7632  166.6959 C.ar    1  UNL1        0.0895
      6 C         139.4612  139.4511  165.9865 C.ar    1  UNL1        0.0823
      7 N         139.2601  139.7344  164.5273 N.ar    1  UNL1       -0.3189
      8 C         139.2939  141.2217  164.3350 C.ar    1  UNL1        0.0814
      9 C         139.1512  142.0791  163.1125 C.ar    1  UNL1        0.0572
     10 C         139.8418  140.9485  168.1677 C.2     1  UNL1        0.2489
     11 O         139.4756  139.8537  169.1254 O.2     1  UNL1       -0.2700
     12 N         140.4306  142.2287  168.6819 N.am    1  UNL1       -0.2984
     13 H         140.6710  142.9474  168.0534 H       1  UNL1        0.1498
     14 C         140.6531  142.4141  170.1537 C.3     1  UNL1        0.1215
     15 C         141.4394  141.3975  170.9272 C.3     1  UNL1        0.1583
     16 O         140.7412  140.4829  171.8895 O.3     1  UNL1       -0.3802
     17 H         140.3796  141.0022  172.6247 H       1  UNL1        0.2105
     18 C         140.1610  145.4162  161.6542 C.3     1  UNL1        0.2525
     19 O         139.0878  144.4298  162.0078 O.3     1  UNL1       -0.4698
     20 C         139.0602  138.7103  163.4497 C.3     1  UNL1        0.1517
     21 C         140.0948  138.5384  162.3772 C.ar    1  UNL1        0.0823
     22 N         141.4676  138.0484  162.7310 N.ar    1  UNL1       -0.2266
     23 C         142.5022  137.8764  161.6586 C.ar    1  UNL1        0.1998
     24 N         142.1639  138.1946  160.2323 N.ar    1  UNL1       -0.2093
     25 C         140.7911  138.6847  159.8785 C.ar    1  UNL1        0.1307
     26 C         139.7565  138.8566  160.9509 C.ar    1  UNL1        0.0253
     27 C         138.3837  139.3467  160.5970 C.3     1  UNL1        0.0353
     28 N         140.4529  139.0029  158.4522 N.pl3   1  UNL1       -0.2899
     29 C         139.8976  137.9351  157.5569 C.3     1  UNL1        0.1136
     30 C         140.6699  140.3888  157.9211 C.3     1  UNL1        0.1136
@<TRIPOS>BOND
     1    18    19    1
     2    19     1    1
     3     1     2   ar
     4     2     3   ar
     5     3     4   ar
     6     4     5   ar
     7     5    10    1
     8    10    11    2
     9    10    12   am
    10    12    14    1
    11    14    15    1
    12    15    16    1
    13     5     6   ar
    14     6     7   ar
    15     7    20    1
    16    20    21    1
    17    21    22   ar
    18    22    23   ar
    19    23    24   ar
    20    24    25   ar
    21    25    28    1
    22    28    29    1
    23    28    30    1
    24    25    26   ar
    25    26    27    1
    26     7     8   ar
    27     8     9   ar
    28     9     1   ar
    29     8     4   ar
    30    26    21   ar
    31    12    13    1
    32    16    17    1
@<TRIPOS>MOLECULE
*****
 30 32 0 0 0
SMALL
GASTEIGER

@<TRIPOS>ATOM
      1 C         142.8585  138.8469  162.9609 C.ar    1  UNL1        0.1593
      2 C         142.2101  138.1226  164.1032 C.ar    1  UNL1        0.1357
      3 N         141.5864  138.8979  165.2256 N.ar    1  UNL1       -0.2390
      4 C         141.6111  140.3976  165.2057 C.ar    1  UNL1        0.1030
      5 C         141.0818  141.4229  166.1641 C.ar    1  UNL1        0.0895
      6 C         141.4031  142.7810  165.6141 C.ar    1  UNL1        0.0823
      7 N         142.1310  142.5950  164.3158 N.ar    1  UNL1       -0.3189
      8 C         142.2595  141.1219  164.0634 C.ar    1  UNL1        0.0814
      9 C         142.8832  140.3465  162.9410 C.ar    1  UNL1        0.0572
     10 C         140.3583  141.1399  167.4472 C.2     1  UNL1        0.2489
     11 O         139.3019  140.0761  167.4936 O.2     1  UNL1       -0.2700
     12 N         140.6912  141.9207  168.6839 N.am    1  UNL1       -0.2984
     13 H         141.3846  142.6190  168.6535 H       1  UNL1        0.1498
     14 C         139.9676  141.6377  169.9670 C.3     1  UNL1        0.1215
     15 C         140.5064  140.6140  170.9219 C.3     1  UNL1        0.1583
     16 O         139.6666  139.4324  171.3072 O.3     1  UNL1       -0.3802
     17 H         138.8952  139.7348  171.8116 H       1  UNL1        0.2105
     18 C         143.9729  138.7869  160.6147 C.3     1  UNL1        0.2525
     19 O         143.4822  138.0716  161.8384 O.3     1  UNL1       -0.4698
     20 C         142.6408  143.6897  163.4261 C.3     1  UNL1        0.1517
     21 C         141.7049  144.3880  162.4846 C.ar    1  UNL1        0.0823
     22 N         140.6232  145.2763  163.0237 N.ar    1  UNL1       -0.2266
     23 C         139.6873  145.9746  162.0822 C.ar    1  UNL1        0.1998
     24 N         139.8331  145.7845  160.6014 N.ar    1  UNL1       -0.2093
     25 C         140.9148  144.8961  160.0623 C.ar    1  UNL1        0.1307
     26 C         141.8507  144.1978  161.0038 C.ar    1  UNL1        0.0253
     27 C         142.9324  143.3094  160.4645 C.3     1  UNL1        0.0353
     28 N         141.0606  144.7060  158.5815 N.pl3   1  UNL1       -0.2899
     29 C         141.9133  145.6482  157.7847 C.3     1  UNL1        0.1136
     30 C         140.3535  143.5736  157.8975 C.3     1  UNL1        0.1136
@<TRIPOS>BOND
     1    18    19    1
     2    19     1    1
     3     1     2   ar
     4     2     3   ar
     5     3     4   ar
     6     4     5   ar
     7     5    10    1
     8    10    11    2
     9    10    12   am
    10    12    14    1
    11    14    15    1
    12    15    16    1
    13     5     6   ar
    14     6     7   ar
    15     7    20    1
    16    20    21    1
    17    21    22   ar
    18    22    23   ar
    19    23    24   ar
    20    24    25   ar
    21    25    28    1
    22    28    29    1
    23    28    30    1
    24    25    26   ar
    25    26    27    1
    26     7     8   ar
    27     8     9   ar
    28     9     1   ar
    29     8     4   ar
    30    26    21   ar
    31    12    13    1
    32    16    17    1
