@<TRIPOS>MOLECULE
*****
 15 16 0 0 0
SMALL
GASTEIGER

@<TRIPOS>ATOM
      1 C         142.4413  141.8544  169.6260 C.3     1  UNL1        0.1403
      2 C         142.5886  141.6209  168.1417 C.3     1  UNL1        0.0705
      3 C         142.7436  141.0987  166.7441 C.3     1  UNL1        0.0180
      4 C         142.8182  139.6022  166.8141 C.3     1  UNL1        0.0174
      5 C         142.7092  139.1995  168.2549 C.3     1  UNL1        0.0600
      6 C         142.5705  139.2623  169.7471 C.3     1  UNL1        0.0458
      7 C         142.4365  140.5898  170.4327 C.3     1  UNL1        0.1237
      8 O         142.2977  140.6526  171.9249 O.3     1  UNL1       -0.3838
      9 N         142.5673  140.4471  169.0754 N.3     1  UNL1       -0.2734
     10 C         142.4862  140.6720  169.8359 C.3     1  UNL1        0.0896
     11 H         142.3133  139.7537  172.2891 H       1  UNL1        0.2104
     12 C         142.3073  143.1818  170.3115 C.2     1  UNL1        0.3203
     13 O         143.5037  143.8176  170.9551 O.2     1  UNL1       -0.2500
     14 C         139.7319  143.0879  170.6409 C.3     1  UNL1        0.2556
     15 O         140.9769  143.8734  170.3535 O.3     1  UNL1       -0.4443
@<TRIPOS>BOND
     1    14    15    1
     2    15    12    1
     3    12    13    2
     4     1    12    1
     5     1     2    1
     6     2     3    1
     7     3     4    1
     8     5     4    1
     9     5     6    1
    10     6     7    1
    11     7     8    1
    12     5     9    1
    13     9    10    1
    14     7     1    1
    15     9     2    1
    16     8    11    1
@<TRIPOS>MOLECULE
*****
 15 16 0 0 0
SMALL
GASTEIGER

@<TRIPOS>ATOM
      1 C         140.9494  142.5529  169.6820 C.3     1  UNL1        0.1403
      2 C         141.0966  142.4831  168.1811 C.3     1  UNL1        0.0705
      3 C         141.5367  142.3957  166.7498 C.3     1  UNL1        0.0180
      4 C         143.0329  142.2907  166.7305 C.3     1  UNL1        0.0174
      5 C         143.5175  142.3132  168.1499 C.3     1  UNL1        0.0600
      6 C         143.5409  142.3710  169.6485 C.3     1  UNL1        0.0458
      7 C         142.2568  142.4908  170.4146 C.3     1  UNL1        0.1237
      8 O         142.2803  142.5486  171.9133 O.3     1  UNL1       -0.3838
      9 N         142.3208  142.4321  169.0464 N.3     1  UNL1       -0.2734
     10 C         142.1405  142.4754  169.8217 C.3     1  UNL1        0.0896
     11 H         143.1975  142.4970  172.2245 H       1  UNL1        0.2104
     12 C         139.6654  142.6727  170.4480 C.2     1  UNL1        0.3203
     13 O         139.3335  143.9503  171.1604 O.2     1  UNL1       -0.2500
     14 C         139.1506  140.1613  170.0263 C.3     1  UNL1        0.2556
     15 O         138.7132  141.5150  170.5018 O.3     1  UNL1       -0.4443
@<TRIPOS>BOND
     1    14    15    1
     2    15    12    1
     3    12    13    2
     4     1    12    1
     5     1     2    1
     6     2     3    1
     7     3     4    1
     8     5     4    1
     9     5     6    1
    10     6     7    1
    11     7     8    1
    12     5     9    1
    13     9    10    1
    14     7     1    1
    15     9     2    1
    16     8    11    1
@<TRIPOS>MOLECULE
*****
 15 16 0 0 0
SMALL
GASTEIGER

@<TRIPOS>ATOM
      1 C         141.5950  140.2179  169.6224 C.3     1  UNL1        0.1403
      2 C         141.2440  139.9674  168.1755 C.3     1  UNL1        0.0705
      3 C         140.6125  139.7133  166.8389 C.3     1  UNL1        0.0180
      4 C         139.1275  139.6343  167.0355 C.3     1  UNL1        0.0174
      5 C         138.8413  139.8395  168.4936 C.3     1  UNL1        0.0600
      6 C         139.0230  140.0810  169.9628 C.3     1  UNL1        0.0458
      7 C         140.3998  140.2702  170.5272 C.3     1  UNL1        0.1237
      8 O         140.5814  140.5116  171.9964 O.3     1  UNL1       -0.3838
      9 N         140.1495  140.0454  169.1982 N.3     1  UNL1       -0.2734
     10 C         140.4341  140.1801  169.9305 C.3     1  UNL1        0.0896
     11 H         139.7152  140.5155  172.4329 H       1  UNL1        0.2104
     12 C         142.9718  140.4070  170.1868 C.2     1  UNL1        0.3203
     13 O         143.6527  139.2756  170.8982 O.2     1  UNL1       -0.2500
     14 C         142.9471  142.9976  170.3825 C.3     1  UNL1        0.2556
     15 O         143.6678  141.7276  170.0397 O.3     1  UNL1       -0.4443
@<TRIPOS>BOND
     1    14    15    1
     2    15    12    1
     3    12    13    2
     4     1    12    1
     5     1     2    1
     6     2     3    1
     7     3     4    1
     8     5     4    1
     9     5     6    1
    10     6     7    1
    11     7     8    1
    12     5     9    1
    13     9    10    1
    14     7     1    1
    15     9     2    1
    16     8    11    1
@<TRIPOS>MOLECULE
*****
 15 16 0 0 0
SMALL
GASTEIGER

@<TRIPOS>ATOM
      1 C         140.5288  142.5323  169.0459 C.3     1  UNL1        0.1403
      2 C         140.5493  142.5637  167.5366 C.3     1  UNL1        0.0705
      3 C         140.4550  142.3183  166.0598 C.3     1  UNL1        0.0180
      4 C         139.8880  140.9450  165.8535 C.3     1  UNL1        0.0174
      5 C         139.6317  140.3417  167.2027 C.3     1  UNL1        0.0600
      6 C         139.5466  140.1537  168.6884 C.3     1  UNL1        0.0458
      7 C         139.9951  141.2490  169.6100 C.3     1  UNL1        0.1237
      8 O         139.9099  141.0609  171.0957 O.3     1  UNL1       -0.3838
      9 N         140.0404  141.3422  168.2429 N.3     1  UNL1       -0.2734
     10 C         140.0694  141.4218  169.0356 C.3     1  UNL1        0.0896
     11 H         139.5458  140.1831  171.2901 H       1  UNL1        0.2104
     12 C         140.9772  143.6275  169.9674 C.2     1  UNL1        0.3203
     13 O         140.0502  144.7611  170.2920 O.2     1  UNL1       -0.2500
     14 C         143.3703  142.6187  170.0421 C.3     1  UNL1        0.2556
     15 O         142.3528  143.5892  170.5643 O.3     1  UNL1       -0.4443
@<TRIPOS>BOND
     1    14    15    1
     2    15    12    1
     3    12    13    2
     4     1    12    1
     5     1     2    1
     6     2     3    1
     7     3     4    1
     8     5     4    1
     9     5     6    1
    10     6     7    1
    11     7     8    1
    12     5     9    1
    13     9    10    1
    14     7     1    1
    15     9     2    1
    16     8    11    1
@<TRIPOS>MOLECULE
*****
 15 16 0 0 0
SMALL
GASTEIGER

@<TRIPOS>ATOM
      1 C         140.1949  140.2645  169.1176 C.3     1  UNL1        0.1403
      2 C         140.0051  140.1019  167.6286 C.3     1  UNL1        0.0705
      3 C         140.1053  139.8575  166.1521 C.3     1  UNL1        0.0180
      4 C         141.5048  139.4101  165.8503 C.3     1  UNL1        0.0174
      5 C         142.2696  139.3779  167.1403 C.3     1  UNL1        0.0600
      6 C         142.6189  139.4895  168.5948 C.3     1  UNL1        0.0458
      7 C         141.5816  139.9328  169.5834 C.3     1  UNL1        0.1237
      8 O         141.9310  140.0443  171.0378 O.3     1  UNL1       -0.3838
      9 N         141.3427  139.8055  168.2394 N.3     1  UNL1       -0.2734
     10 C         141.3429  139.9205  169.0282 C.3     1  UNL1        0.0896
     11 H         142.8595  139.7956  171.1673 H       1  UNL1        0.2104
     12 C         139.1576  140.7078  170.1061 C.2     1  UNL1        0.3203
     13 O         137.9458  139.8589  170.3533 O.2     1  UNL1       -0.2500
     14 C         140.0465  143.1473  170.1976 C.3     1  UNL1        0.2556
     15 O         139.3319  142.0000  170.8477 O.3     1  UNL1       -0.4443
@<TRIPOS>BOND
     1    14    15    1
     2    15    12    1
     3    12    13    2
     4     1    12    1
     5     1     2    1
     6     2     3    1
     7     3     4    1
     8     5     4    1
     9     5     6    1
    10     6     7    1
    11     7     8    1
    12     5     9    1
    13     9    10    1
    14     7     1    1
    15     9     2    1
    16     8    11    1
@<TRIPOS>MOLECULE
*****
 15 16 0 0 0
SMALL
GASTEIGER

@<TRIPOS>ATOM
      1 C         144.3336  142.0747  164.8537 C.3     1  UNL1        0.1403
      2 C         143.2943  141.2849  165.6124 C.3     1  UNL1        0.0705
      3 C         142.3877  140.2630  166.2317 C.3     1  UNL1        0.0180
      4 C         142.7951  138.9124  165.7221 C.3     1  UNL1        0.0174
      5 C         143.9536  139.0995  164.7878 C.3     1  UNL1        0.0600
      6 C         145.0393  139.7353  163.9711 C.3     1  UNL1        0.0458
      7 C         145.2293  141.2229  164.0040 C.3     1  UNL1        0.1237
      8 O         146.3150  141.8585  163.1873 O.3     1  UNL1       -0.3838
      9 N         144.2621  140.5659  164.7200 N.3     1  UNL1       -0.2734
     10 C         144.7696  141.0674  164.3644 C.3     1  UNL1        0.0896
     11 H         146.7974  141.1720  162.7005 H       1  UNL1        0.2104
     12 C         144.5235  143.5622  164.8867 C.2     1  UNL1        0.3203
     13 O         145.2356  144.2020  166.0415 O.2     1  UNL1       -0.2500
     14 C         142.8140  143.9542  162.9700 C.3     1  UNL1        0.2556
     15 O         144.0015  144.4101  163.7648 O.3     1  UNL1       -0.4443
@<TRIPOS>BOND
     1    14    15    1
     2    15    12    1
     3    12    13    2
     4     1    12    1
     5     1     2    1
     6     2     3    1
     7     3     4    1
     8     5     4    1
     9     5     6    1
    10     6     7    1
    11     7     8    1
    12     5     9    1
    13     9    10    1
    14     7     1    1
    15     9     2    1
    16     8    11    1
@<TRIPOS>MOLECULE
*****
 15 16 0 0 0
SMALL
GASTEIGER

@<TRIPOS>ATOM
      1 C         140.4188  144.4405  164.4221 C.3     1  UNL1        0.1403
      2 C         141.1657  143.3840  165.2002 C.3     1  UNL1        0.0705
      3 C         142.1469  142.4346  165.8215 C.3     1  UNL1        0.0180
      4 C         143.4971  142.7103  165.2293 C.3     1  UNL1        0.0174
      5 C         143.3505  143.8301  164.2420 C.3     1  UNL1        0.0600
      6 C         142.7576  144.9179  163.3964 C.3     1  UNL1        0.0458
      7 C         141.2917  145.2231  163.4865 C.3     1  UNL1        0.1237
      8 O         140.6988  146.3109  162.6409 O.3     1  UNL1       -0.3838
      9 N         141.9096  144.2465  164.2241 N.3     1  UNL1       -0.2734
     10 C         141.4302  144.7720  163.8642 C.3     1  UNL1        0.0896
     11 H         141.3943  146.7134  162.0976 H       1  UNL1        0.2104
     12 C         138.9530  144.7456  164.5122 C.2     1  UNL1        0.3203
     13 O         138.3591  145.1954  165.8141 O.2     1  UNL1       -0.2500
     14 C         137.9994  143.2836  162.5878 C.3     1  UNL1        0.2556
     15 O         138.0808  144.6010  163.3003 O.3     1  UNL1       -0.4443
@<TRIPOS>BOND
     1    14    15    1
     2    15    12    1
     3    12    13    2
     4     1    12    1
     5     1     2    1
     6     2     3    1
     7     3     4    1
     8     5     4    1
     9     5     6    1
    10     6     7    1
    11     7     8    1
    12     5     9    1
    13     9    10    1
    14     7     1    1
    15     9     2    1
    16     8    11    1
@<TRIPOS>MOLECULE
*****
 15 16 0 0 0
SMALL
GASTEIGER

@<TRIPOS>ATOM
      1 C         138.3003  141.3319  164.3834 C.3     1  UNL1        0.1403
      2 C         139.0356  142.3728  165.1928 C.3     1  UNL1        0.0705
      3 C         139.6540  143.5994  165.7953 C.3     1  UNL1        0.0180
      4 C         139.2507  144.7792  164.9614 C.3     1  UNL1        0.0174
      5 C         138.3830  144.2818  163.8435 C.3     1  UNL1        0.0600
      6 C         137.6017  143.3754  162.9391 C.3     1  UNL1        0.0458
      7 C         137.5604  141.9004  163.2090 C.3     1  UNL1        0.1237
      8 O         136.7791  140.9941  162.3045 O.3     1  UNL1       -0.3838
      9 N         138.2501  142.7945  163.9865 N.3     1  UNL1       -0.2734
     10 C         137.8991  142.1754  163.6273 C.3     1  UNL1        0.0896
     11 H         136.3648  141.5181  161.6012 H       1  UNL1        0.2104
     12 C         138.2590  139.8570  164.6533 C.2     1  UNL1        0.3203
     13 O         137.9538  139.3554  166.0336 O.2     1  UNL1       -0.2500
     14 C         139.3431  137.6547  163.8019 C.3     1  UNL1        0.2556
     15 O         138.5230  138.8836  163.5430 O.3     1  UNL1       -0.4443
@<TRIPOS>BOND
     1    14    15    1
     2    15    12    1
     3    12    13    2
     4     1    12    1
     5     1     2    1
     6     2     3    1
     7     3     4    1
     8     5     4    1
     9     5     6    1
    10     6     7    1
    11     7     8    1
    12     5     9    1
    13     9    10    1
    14     7     1    1
    15     9     2    1
    16     8    11    1
@<TRIPOS>MOLECULE
*****
 15 16 0 0 0
SMALL
GASTEIGER

@<TRIPOS>ATOM
      1 C         142.9959  143.8320  164.6126 C.3     1  UNL1        0.1403
      2 C         141.7018  143.3453  165.2192 C.3     1  UNL1        0.0705
      3 C         140.2887  143.0531  165.6286 C.3     1  UNL1        0.0180
      4 C         139.3788  143.9040  164.7931 C.3     1  UNL1        0.0174
      5 C         140.2296  144.7220  163.8673 C.3     1  UNL1        0.0600
      6 C         141.4198  145.3056  163.1655 C.3     1  UNL1        0.0458
      7 C         142.8030  144.8606  163.5381 C.3     1  UNL1        0.1237
      8 O         143.9931  145.4443  162.8362 O.3     1  UNL1       -0.3838
      9 N         141.6653  144.3767  164.1307 N.3     1  UNL1       -0.2734
     10 C         142.3961  144.5683  163.8762 C.3     1  UNL1        0.0896
     11 H         143.6949  146.0888  162.1755 H       1  UNL1        0.2104
     12 C         144.3790  143.3869  164.9852 C.2     1  UNL1        0.3203
     13 O         145.1942  144.1987  165.9477 O.2     1  UNL1       -0.2500
     14 C         145.3185  142.0845  162.9429 C.3     1  UNL1        0.2556
     15 O         144.9470  142.1302  164.3954 O.3     1  UNL1       -0.4443
@<TRIPOS>BOND
     1    14    15    1
     2    15    12    1
     3    12    13    2
     4     1    12    1
     5     1     2    1
     6     2     3    1
     7     3     4    1
     8     5     4    1
     9     5     6    1
    10     6     7    1
    11     7     8    1
    12     5     9    1
    13     9    10    1
    14     7     1    1
    15     9     2    1
    16     8    11    1
