@<TRIPOS>MOLECULE
*****
 28 32 0 0 0
SMALL
GASTEIGER

@<TRIPOS>ATOM
      1 C         138.2094  139.2024  162.4792 C.3     1  UNL1        0.0869
      2 C         138.5376  138.4832  162.7096 C.3     1  UNL1        0.0221
      3 C         137.9888  138.5521  161.3152 C.3     1  UNL1        0.0191
      4 C         137.3728  139.8245  160.8137 C.3     1  UNL1        0.0722
      5 N         137.3055  141.0280  161.7065 N.3     1  UNL1       -0.2721
      6 C         137.8543  140.9592  163.1008 C.3     1  UNL1        0.0722
      7 C         138.4703  139.6867  163.6023 C.3     1  UNL1        0.0191
      8 C         137.6524  140.3529  162.0257 C.3     1  UNL1        0.0799
      9 O         141.1634  140.1666  163.6364 O.2     1  UNL1       -0.2668
     10 C         140.4562  140.0453  164.9536 C.2     1  UNL1        0.2806
     11 N         139.0191  139.6178  164.9966 N.am    1  UNL1       -0.2987
     12 H         138.4708  139.5093  165.8071 H       1  UNL1        0.1498
     13 C         141.1861  140.3514  166.2278 C.ar    1  UNL1        0.1983
     14 C         141.9711  141.5965  166.5170 C.ar    1  UNL1        0.0452
     15 C         142.5293  141.4808  167.9044 C.ar    1  UNL1        0.0377
     16 C         143.3814  142.4042  168.7237 C.ar    1  UNL1        0.0031
     17 C         143.7935  142.0110  170.1113 C.ar    1  UNL1        0.0002
     18 C         143.3536  140.6943  170.6796 C.ar    1  UNL1        0.0031
     19 C         142.5015  139.7709  169.8603 C.ar    1  UNL1        0.0375
     20 C         142.0894  140.1642  168.4727 C.ar    1  UNL1        0.1455
     21 O         141.2593  139.4662  167.4365 O.2     1  UNL1       -0.4489
     22 C         137.7870  142.1626  163.9935 C.3     1  UNL1        0.0455
     23 C         138.6171  143.3128  163.5055 C.ar    1  UNL1       -0.0016
     24 C         140.0433  143.4501  163.9495 C.ar    1  UNL1       -0.0011
     25 C         140.8733  144.6002  163.4614 C.ar    1  UNL1        0.0204
     26 C         140.2771  145.6131  162.5294 C.ar    1  UNL1        0.0989
     27 N         138.8510  145.4758  162.0854 N.ar    1  UNL1       -0.2426
     28 C         138.0210  144.3257  162.5735 C.ar    1  UNL1        0.0946
@<TRIPOS>BOND
     1     9    10    2
     2    10    11   am
     3     1    11    1
     4     1     2    1
     5     2     3    1
     6     3     4    1
     7     4     5    1
     8     5     6    1
     9     6     7    1
    10     5     8    1
    11     8    22    1
    12    22    23    1
    13    23    24   ar
    14    24    25   ar
    15    25    26   ar
    16    26    27   ar
    17    27    28   ar
    18    10    13    1
    19    13    14   ar
    20    14    15   ar
    21    15    16   ar
    22    16    17   ar
    23    17    18   ar
    24    18    19   ar
    25    19    20   ar
    26    20    21   ar
    27     8     1    1
    28    28    23   ar
    29    21    13   ar
    30     7     2    1
    31    20    15   ar
    32    11    12    1
@<TRIPOS>MOLECULE
*****
 28 32 0 0 0
SMALL
GASTEIGER

@<TRIPOS>ATOM
      1 C         138.6487  138.5695  163.0888 C.3     1  UNL1        0.0869
      2 C         138.7630  138.0002  162.5050 C.3     1  UNL1        0.0221
      3 C         139.4065  137.7344  163.8336 C.3     1  UNL1        0.0191
      4 C         139.2492  138.7195  164.9537 C.3     1  UNL1        0.0722
      5 N         138.4483  139.9706  164.7452 N.3     1  UNL1       -0.2721
      6 C         137.8048  140.2365  163.4165 C.3     1  UNL1        0.0722
      7 C         137.9622  139.2513  162.2964 C.3     1  UNL1        0.0191
      8 C         138.5065  139.4603  164.1016 C.3     1  UNL1        0.0799
      9 O         139.7559  140.2597  160.4597 O.2     1  UNL1       -0.2668
     10 C         138.3072  140.2060  160.0744 C.2     1  UNL1        0.2806
     11 N         137.3187  139.5171  160.9678 N.am    1  UNL1       -0.2987
     12 H         136.3520  139.4291  160.8033 H       1  UNL1        0.1498
     13 C         137.8471  140.8412  158.7958 C.ar    1  UNL1        0.1983
     14 C         138.2873  142.1732  158.2648 C.ar    1  UNL1        0.0452
     15 C         137.5782  142.4111  156.9645 C.ar    1  UNL1        0.0377
     16 C         137.6190  143.5537  155.9935 C.ar    1  UNL1        0.0031
     17 C         136.7813  143.5113  154.7500 C.ar    1  UNL1        0.0002
     18 C         135.9029  142.3263  154.4774 C.ar    1  UNL1        0.0031
     19 C         135.8622  141.1838  155.4484 C.ar    1  UNL1        0.0375
     20 C         136.6998  141.2262  156.6919 C.ar    1  UNL1        0.1455
     21 O         136.8660  140.2559  157.8238 O.2     1  UNL1       -0.4489
     22 C         137.0040  141.4875  163.2080 C.3     1  UNL1        0.0455
     23 C         137.8557  142.7223  163.1975 C.ar    1  UNL1       -0.0016
     24 C         138.1489  143.4421  164.4804 C.ar    1  UNL1       -0.0011
     25 C         139.0006  144.6768  164.4699 C.ar    1  UNL1        0.0204
     26 C         139.5590  145.1917  163.1764 C.ar    1  UNL1        0.0989
     27 N         139.2658  144.4719  161.8935 N.ar    1  UNL1       -0.2426
     28 C         138.4142  143.2372  161.9041 C.ar    1  UNL1        0.0946
@<TRIPOS>BOND
     1     9    10    2
     2    10    11   am
     3     1    11    1
     4     1     2    1
     5     2     3    1
     6     3     4    1
     7     4     5    1
     8     5     6    1
     9     6     7    1
    10     5     8    1
    11     8    22    1
    12    22    23    1
    13    23    24   ar
    14    24    25   ar
    15    25    26   ar
    16    26    27   ar
    17    27    28   ar
    18    10    13    1
    19    13    14   ar
    20    14    15   ar
    21    15    16   ar
    22    16    17   ar
    23    17    18   ar
    24    18    19   ar
    25    19    20   ar
    26    20    21   ar
    27     8     1    1
    28    28    23   ar
    29    21    13   ar
    30     7     2    1
    31    20    15   ar
    32    11    12    1
@<TRIPOS>MOLECULE
*****
 28 32 0 0 0
SMALL
GASTEIGER

@<TRIPOS>ATOM
      1 C         138.4333  139.1910  162.0254 C.3     1  UNL1        0.0869
      2 C         137.8701  139.7506  162.2437 C.3     1  UNL1        0.0221
      3 C         137.9936  139.4628  160.7767 C.3     1  UNL1        0.0191
      4 C         138.9947  138.4567  160.2915 C.3     1  UNL1        0.0722
      5 N         139.8725  137.7384  161.2732 N.3     1  UNL1       -0.2721
      6 C         139.7490  138.0262  162.7402 C.3     1  UNL1        0.0722
      7 C         138.7477  139.0323  163.2254 C.3     1  UNL1        0.0191
      8 C         139.3386  138.2813  161.5866 C.3     1  UNL1        0.0799
      9 O         140.1571  141.2783  163.9403 O.2     1  UNL1       -0.2668
     10 C         139.5404  140.4576  165.0339 C.2     1  UNL1        0.2806
     11 N         138.6242  139.3201  164.6923 N.am    1  UNL1       -0.2987
     12 H         138.1731  138.7263  165.3350 H       1  UNL1        0.1498
     13 C         139.8399  140.7744  166.4692 C.ar    1  UNL1        0.1983
     14 C         139.8560  139.7935  167.6038 C.ar    1  UNL1        0.0452
     15 C         140.2019  140.5406  168.8577 C.ar    1  UNL1        0.0377
     16 C         140.3624  140.0935  170.2805 C.ar    1  UNL1        0.0031
     17 C         140.7206  141.0893  171.3435 C.ar    1  UNL1        0.0002
     18 C         140.9182  142.5320  170.9838 C.ar    1  UNL1        0.0031
     19 C         140.7577  142.9791  169.5611 C.ar    1  UNL1        0.0375
     20 C         140.3995  141.9833  168.4980 C.ar    1  UNL1        0.1455
     21 O         140.1758  142.1278  167.0218 O.2     1  UNL1       -0.4489
     22 C         140.6266  137.3080  163.7219 C.3     1  UNL1        0.0455
     23 C         141.9604  137.9893  163.8053 C.ar    1  UNL1       -0.0016
     24 C         142.4824  138.4563  165.1316 C.ar    1  UNL1       -0.0011
     25 C         143.8161  139.1376  165.2149 C.ar    1  UNL1        0.0204
     26 C         144.6278  139.3519  163.9719 C.ar    1  UNL1        0.0989
     27 N         144.1058  138.8849  162.6455 N.ar    1  UNL1       -0.2426
     28 C         142.7721  138.2036  162.5622 C.ar    1  UNL1        0.0946
@<TRIPOS>BOND
     1     9    10    2
     2    10    11   am
     3     1    11    1
     4     1     2    1
     5     2     3    1
     6     3     4    1
     7     4     5    1
     8     5     6    1
     9     6     7    1
    10     5     8    1
    11     8    22    1
    12    22    23    1
    13    23    24   ar
    14    24    25   ar
    15    25    26   ar
    16    26    27   ar
    17    27    28   ar
    18    10    13    1
    19    13    14   ar
    20    14    15   ar
    21    15    16   ar
    22    16    17   ar
    23    17    18   ar
    24    18    19   ar
    25    19    20   ar
    26    20    21   ar
    27     8     1    1
    28    28    23   ar
    29    21    13   ar
    30     7     2    1
    31    20    15   ar
    32    11    12    1
@<TRIPOS>MOLECULE
*****
 28 32 0 0 0
SMALL
GASTEIGER

@<TRIPOS>ATOM
      1 C         138.9630  138.7505  161.6512 C.3     1  UNL1        0.0869
      2 C         139.4466  138.1214  161.8713 C.3     1  UNL1        0.0221
      3 C         139.2399  138.3231  160.3994 C.3     1  UNL1        0.0191
      4 C         138.3736  139.4457  159.9105 C.3     1  UNL1        0.0722
      5 N         137.7137  140.3667  160.8937 N.3     1  UNL1       -0.2721
      6 C         137.9204  140.1651  162.3656 C.3     1  UNL1        0.0722
      7 C         138.7868  139.0423  162.8544 C.3     1  UNL1        0.0191
      8 C         138.1796  139.7656  161.2092 C.3     1  UNL1        0.0799
      9 O         141.1343  140.1778  163.7112 O.2     1  UNL1       -0.2668
     10 C         140.2053  139.6180  164.7473 C.2     1  UNL1        0.2806
     11 N         138.9934  138.8407  164.3264 N.am    1  UNL1       -0.2987
     12 H         138.3273  138.4355  164.9275 H       1  UNL1        0.1498
     13 C         140.4881  139.8354  166.2042 C.ar    1  UNL1        0.1983
     14 C         139.4633  140.0378  167.2807 C.ar    1  UNL1        0.0452
     15 C         140.1872  140.2161  168.5823 C.ar    1  UNL1        0.0377
     16 C         139.6960  140.4505  169.9801 C.ar    1  UNL1        0.0031
     17 C         140.6771  140.5928  171.1058 C.ar    1  UNL1        0.0002
     18 C         142.1493  140.5006  170.8337 C.ar    1  UNL1        0.0031
     19 C         142.6405  140.2663  169.4360 C.ar    1  UNL1        0.0375
     20 C         141.6594  140.1240  168.3103 C.ar    1  UNL1        0.1455
     21 O         141.8454  139.8887  166.8405 O.2     1  UNL1       -0.4489
     22 C         137.2606  141.0860  163.3487 C.3     1  UNL1        0.0455
     23 C         137.9622  142.4105  163.4089 C.ar    1  UNL1       -0.0016
     24 C         138.6531  142.8367  164.6702 C.ar    1  UNL1       -0.0011
     25 C         139.3546  144.1611  164.7303 C.ar    1  UNL1        0.0204
     26 C         139.3652  145.0594  163.5291 C.ar    1  UNL1        0.0989
     27 N         138.6744  144.6332  162.2677 N.ar    1  UNL1       -0.2426
     28 C         137.9728  143.3088  162.2076 C.ar    1  UNL1        0.0946
@<TRIPOS>BOND
     1     9    10    2
     2    10    11   am
     3     1    11    1
     4     1     2    1
     5     2     3    1
     6     3     4    1
     7     4     5    1
     8     5     6    1
     9     6     7    1
    10     5     8    1
    11     8    22    1
    12    22    23    1
    13    23    24   ar
    14    24    25   ar
    15    25    26   ar
    16    26    27   ar
    17    27    28   ar
    18    10    13    1
    19    13    14   ar
    20    14    15   ar
    21    15    16   ar
    22    16    17   ar
    23    17    18   ar
    24    18    19   ar
    25    19    20   ar
    26    20    21   ar
    27     8     1    1
    28    28    23   ar
    29    21    13   ar
    30     7     2    1
    31    20    15   ar
    32    11    12    1
@<TRIPOS>MOLECULE
*****
 28 32 0 0 0
SMALL
GASTEIGER

@<TRIPOS>ATOM
      1 C         142.7648  138.3344  162.2374 C.3     1  UNL1        0.0869
      2 C         142.0993  137.9300  162.5048 C.3     1  UNL1        0.0221
      3 C         142.4387  137.7729  161.0522 C.3     1  UNL1        0.0191
      4 C         143.6349  138.4749  160.4813 C.3     1  UNL1        0.0722
      5 N         144.4919  139.3342  161.3630 N.3     1  UNL1       -0.2721
      6 C         144.1525  139.4913  162.8157 C.3     1  UNL1        0.0722
      7 C         142.9562  138.7891  163.3866 C.3     1  UNL1        0.0191
      8 C         143.8465  138.9692  161.7211 C.3     1  UNL1        0.0799
      9 O         140.9740  140.6588  163.7818 O.2     1  UNL1       -0.2668
     10 C         141.6512  140.0840  164.9905 C.2     1  UNL1        0.2806
     11 N         142.6168  138.9462  164.8392 N.am    1  UNL1       -0.2987
     12 H         143.1089  138.5030  165.5676 H       1  UNL1        0.1498
     13 C         141.3627  140.6470  166.3506 C.ar    1  UNL1        0.1983
     14 C         140.9436  142.0556  166.6511 C.ar    1  UNL1        0.0452
     15 C         140.7645  142.1794  168.1352 C.ar    1  UNL1        0.0377
     16 C         140.3605  143.3330  169.0046 C.ar    1  UNL1        0.0031
     17 C         140.2648  143.1545  170.4908 C.ar    1  UNL1        0.0002
     18 C         140.5732  141.8224  171.1077 C.ar    1  UNL1        0.0031
     19 C         140.9773  140.6688  170.2382 C.ar    1  UNL1        0.0375
     20 C         141.0729  140.8473  168.7520 C.ar    1  UNL1        0.1455
     21 O         141.4426  139.9003  167.6491 O.2     1  UNL1       -0.4489
     22 C         145.0094  140.3505  163.6974 C.3     1  UNL1        0.0455
     23 C         144.6505  141.7963  163.5219 C.ar    1  UNL1       -0.0016
     24 C         144.1697  142.5975  164.6952 C.ar    1  UNL1       -0.0011
     25 C         143.8108  144.0433  164.5196 C.ar    1  UNL1        0.0204
     26 C         143.9328  144.6879  163.1707 C.ar    1  UNL1        0.0989
     27 N         144.4137  143.8867  161.9973 N.ar    1  UNL1       -0.2426
     28 C         144.7725  142.4409  162.1729 C.ar    1  UNL1        0.0946
@<TRIPOS>BOND
     1     9    10    2
     2    10    11   am
     3     1    11    1
     4     1     2    1
     5     2     3    1
     6     3     4    1
     7     4     5    1
     8     5     6    1
     9     6     7    1
    10     5     8    1
    11     8    22    1
    12    22    23    1
    13    23    24   ar
    14    24    25   ar
    15    25    26   ar
    16    26    27   ar
    17    27    28   ar
    18    10    13    1
    19    13    14   ar
    20    14    15   ar
    21    15    16   ar
    22    16    17   ar
    23    17    18   ar
    24    18    19   ar
    25    19    20   ar
    26    20    21   ar
    27     8     1    1
    28    28    23   ar
    29    21    13   ar
    30     7     2    1
    31    20    15   ar
    32    11    12    1
@<TRIPOS>MOLECULE
*****
 28 32 0 0 0
SMALL
GASTEIGER

@<TRIPOS>ATOM
      1 C         143.2696  138.3605  162.2743 C.3     1  UNL1        0.0869
      2 C         143.9080  138.6858  162.6799 C.3     1  UNL1        0.0221
      3 C         144.1304  138.3609  161.2325 C.3     1  UNL1        0.0191
      4 C         143.0202  137.7652  160.4184 C.3     1  UNL1        0.0722
      5 N         141.6877  137.4944  161.0518 N.3     1  UNL1       -0.2721
      6 C         141.4654  137.8193  162.4992 C.3     1  UNL1        0.0722
      7 C         142.5756  138.4150  163.3133 C.3     1  UNL1        0.0191
      8 C         142.2657  137.8218  161.5382 C.3     1  UNL1        0.0799
      9 O         142.1395  141.1160  163.7321 O.2     1  UNL1       -0.2668
     10 C         141.9706  140.1840  164.8951 C.2     1  UNL1        0.2806
     11 N         142.3533  138.7399  164.7607 N.am    1  UNL1       -0.2987
     12 H         142.2804  138.0533  165.4625 H       1  UNL1        0.1498
     13 C         141.4189  140.6960  166.1926 C.ar    1  UNL1        0.1983
     14 C         140.5445  139.9316  167.1418 C.ar    1  UNL1        0.0452
     15 C         140.2300  140.8256  168.3046 C.ar    1  UNL1        0.0377
     16 C         139.4122  140.6105  169.5435 C.ar    1  UNL1        0.0031
     17 C         139.2745  141.7124  170.5518 C.ar    1  UNL1        0.0002
     18 C         139.9546  143.0294  170.3213 C.ar    1  UNL1        0.0031
     19 C         140.7724  143.2444  169.0823 C.ar    1  UNL1        0.0375
     20 C         140.9101  142.1425  168.0740 C.ar    1  UNL1        0.1455
     21 O         141.6449  142.0624  166.7687 O.2     1  UNL1       -0.4489
     22 C         140.1329  137.5485  163.1326 C.3     1  UNL1        0.0455
     23 C         139.2292  138.7226  162.8982 C.ar    1  UNL1       -0.0016
     24 C         138.8818  139.1339  161.4982 C.ar    1  UNL1       -0.0011
     25 C         137.9782  140.3080  161.2639 C.ar    1  UNL1        0.0204
     26 C         137.4219  141.0707  162.4296 C.ar    1  UNL1        0.0989
     27 N         137.7694  140.6594  163.8296 N.ar    1  UNL1       -0.2426
     28 C         138.6730  139.4853  164.0639 C.ar    1  UNL1        0.0946
@<TRIPOS>BOND
     1     9    10    2
     2    10    11   am
     3     1    11    1
     4     1     2    1
     5     2     3    1
     6     3     4    1
     7     4     5    1
     8     5     6    1
     9     6     7    1
    10     5     8    1
    11     8    22    1
    12    22    23    1
    13    23    24   ar
    14    24    25   ar
    15    25    26   ar
    16    26    27   ar
    17    27    28   ar
    18    10    13    1
    19    13    14   ar
    20    14    15   ar
    21    15    16   ar
    22    16    17   ar
    23    17    18   ar
    24    18    19   ar
    25    19    20   ar
    26    20    21   ar
    27     8     1    1
    28    28    23   ar
    29    21    13   ar
    30     7     2    1
    31    20    15   ar
    32    11    12    1
@<TRIPOS>MOLECULE
*****
 28 32 0 0 0
SMALL
GASTEIGER

@<TRIPOS>ATOM
      1 C         138.6926  137.9233  165.5020 C.3     1  UNL1        0.0869
      2 C         138.6721  137.1644  165.1831 C.3     1  UNL1        0.0221
      3 C         137.8625  137.3900  166.4256 C.3     1  UNL1        0.0191
      4 C         137.8431  138.7430  167.0727 C.3     1  UNL1        0.0722
      5 N         138.6334  139.8706  166.4774 N.3     1  UNL1       -0.2721
      6 C         139.4430  139.6449  165.2350 C.3     1  UNL1        0.0722
      7 C         139.4623  138.2918  164.5878 C.3     1  UNL1        0.0191
      8 C         138.6751  139.1467  166.0872 C.3     1  UNL1        0.0799
      9 O         137.9087  138.3796  162.3126 O.2     1  UNL1       -0.2668
     10 C         139.3964  138.2833  162.1470 C.2     1  UNL1        0.2806
     11 N         140.2719  138.0662  163.3454 N.am    1  UNL1       -0.2987
     12 H         141.2534  137.9898  163.3398 H       1  UNL1        0.1498
     13 C         140.0086  138.4040  160.7829 C.ar    1  UNL1        0.1983
     14 C         141.4757  138.3944  160.4709 C.ar    1  UNL1        0.0452
     15 C         141.6350  138.5401  158.9865 C.ar    1  UNL1        0.0377
     16 C         142.8495  138.5948  158.1080 C.ar    1  UNL1        0.0031
     17 C         142.6953  138.7492  156.6240 C.ar    1  UNL1        0.0002
     18 C         141.3265  138.8489  156.0185 C.ar    1  UNL1        0.0031
     19 C         140.1120  138.7941  156.8971 C.ar    1  UNL1        0.0375
     20 C         140.2663  138.6397  158.3811 C.ar    1  UNL1        0.1455
     21 O         139.2611  138.5557  159.4913 O.2     1  UNL1       -0.4489
     22 C         140.2332  140.7724  164.6397 C.3     1  UNL1        0.0455
     23 C         139.3893  141.9190  164.1673 C.ar    1  UNL1       -0.0016
     24 C         139.2821  143.1634  164.9978 C.ar    1  UNL1       -0.0011
     25 C         138.4382  144.3100  164.5254 C.ar    1  UNL1        0.0204
     26 C         137.7015  144.2121  163.2224 C.ar    1  UNL1        0.0989
     27 N         137.8087  142.9676  162.3919 N.ar    1  UNL1       -0.2426
     28 C         138.6526  141.8211  162.8644 C.ar    1  UNL1        0.0946
@<TRIPOS>BOND
     1     9    10    2
     2    10    11   am
     3     1    11    1
     4     1     2    1
     5     2     3    1
     6     3     4    1
     7     4     5    1
     8     5     6    1
     9     6     7    1
    10     5     8    1
    11     8    22    1
    12    22    23    1
    13    23    24   ar
    14    24    25   ar
    15    25    26   ar
    16    26    27   ar
    17    27    28   ar
    18    10    13    1
    19    13    14   ar
    20    14    15   ar
    21    15    16   ar
    22    16    17   ar
    23    17    18   ar
    24    18    19   ar
    25    19    20   ar
    26    20    21   ar
    27     8     1    1
    28    28    23   ar
    29    21    13   ar
    30     7     2    1
    31    20    15   ar
    32    11    12    1
@<TRIPOS>MOLECULE
*****
 28 32 0 0 0
SMALL
GASTEIGER

@<TRIPOS>ATOM
      1 C         144.0365  142.3078  161.4196 C.3     1  UNL1        0.0869
      2 C         144.4829  141.6542  161.6465 C.3     1  UNL1        0.0221
      3 C         144.2610  141.8340  160.1740 C.3     1  UNL1        0.0191
      4 C         143.4591  142.9985  159.6731 C.3     1  UNL1        0.0722
      5 N         142.8790  143.9831  160.6448 N.3     1  UNL1       -0.2721
      6 C         143.1009  143.8032  162.1173 C.3     1  UNL1        0.0722
      7 C         143.9028  142.6387  162.6182 C.3     1  UNL1        0.0191
      8 C         143.3114  143.3607  160.9666 C.3     1  UNL1        0.0799
      9 O         142.2260  140.7282  163.7047 O.2     1  UNL1       -0.2668
     10 C         143.0829  141.5295  164.6392 C.2     1  UNL1        0.2806
     11 N         144.1247  142.4589  164.0907 N.am    1  UNL1       -0.2987
     12 H         144.7331  143.0242  164.6194 H       1  UNL1        0.1498
     13 C         142.8981  141.4015  166.1223 C.ar    1  UNL1        0.1983
     14 C         142.8066  142.5349  167.1005 C.ar    1  UNL1        0.0452
     15 C         142.6242  141.9515  168.4703 C.ar    1  UNL1        0.0377
     16 C         142.4748  142.5877  169.8204 C.ar    1  UNL1        0.0031
     17 C         142.3041  141.7298  171.0390 C.ar    1  UNL1        0.0002
     18 C         142.2828  140.2358  170.9073 C.ar    1  UNL1        0.0031
     19 C         142.4322  139.5996  169.5572 C.ar    1  UNL1        0.0375
     20 C         142.6029  140.4575  168.3387 C.ar    1  UNL1        0.1455
     21 O         142.7722  140.1176  166.8875 O.2     1  UNL1       -0.4489
     22 C         142.5208  144.7878  163.0890 C.3     1  UNL1        0.0455
     23 C         141.0305  144.6591  163.2012 C.ar    1  UNL1       -0.0016
     24 C         140.4267  143.9168  164.3563 C.ar    1  UNL1       -0.0011
     25 C         138.9365  143.7882  164.4685 C.ar    1  UNL1        0.0204
     26 C         138.0501  144.4019  163.4256 C.ar    1  UNL1        0.0989
     27 N         138.6539  145.1442  162.2705 N.ar    1  UNL1       -0.2426
     28 C         140.1441  145.2728  162.1583 C.ar    1  UNL1        0.0946
@<TRIPOS>BOND
     1     9    10    2
     2    10    11   am
     3     1    11    1
     4     1     2    1
     5     2     3    1
     6     3     4    1
     7     4     5    1
     8     5     6    1
     9     6     7    1
    10     5     8    1
    11     8    22    1
    12    22    23    1
    13    23    24   ar
    14    24    25   ar
    15    25    26   ar
    16    26    27   ar
    17    27    28   ar
    18    10    13    1
    19    13    14   ar
    20    14    15   ar
    21    15    16   ar
    22    16    17   ar
    23    17    18   ar
    24    18    19   ar
    25    19    20   ar
    26    20    21   ar
    27     8     1    1
    28    28    23   ar
    29    21    13   ar
    30     7     2    1
    31    20    15   ar
    32    11    12    1
@<TRIPOS>MOLECULE
*****
 28 32 0 0 0
SMALL
GASTEIGER

@<TRIPOS>ATOM
      1 C         141.2770  138.2195  161.5122 C.3     1  UNL1        0.0869
      2 C         142.0035  137.9784  161.8155 C.3     1  UNL1        0.0221
      3 C         141.9014  138.0765  160.3222 C.3     1  UNL1        0.0191
      4 C         140.6139  138.5082  159.6852 C.3     1  UNL1        0.0722
      5 N         139.4283  138.8418  160.5415 N.3     1  UNL1       -0.2721
      6 C         139.5304  138.7438  162.0348 C.3     1  UNL1        0.0722
      7 C         140.8180  138.3121  162.6718 C.3     1  UNL1        0.0191
      8 C         140.1127  138.6099  160.9361 C.3     1  UNL1        0.0799
      9 O         142.1225  140.4848  163.7813 O.2     1  UNL1       -0.2668
     10 C         141.4935  139.4886  164.7097 C.2     1  UNL1        0.2806
     11 N         140.9200  138.2140  164.1651 N.am    1  UNL1       -0.2987
     12 H         140.4888  137.5017  164.6903 H       1  UNL1        0.1498
     13 C         141.4381  139.7669  166.1826 C.ar    1  UNL1        0.1983
     14 C         142.6143  140.0335  167.0744 C.ar    1  UNL1        0.0452
     15 C         142.0998  140.2589  168.4653 C.ar    1  UNL1        0.0377
     16 C         142.7989  140.5636  169.7569 C.ar    1  UNL1        0.0031
     17 C         142.0037  140.7410  171.0164 C.ar    1  UNL1        0.0002
     18 C         140.5095  140.6137  170.9841 C.ar    1  UNL1        0.0031
     19 C         139.8104  140.3091  169.6925 C.ar    1  UNL1        0.0375
     20 C         140.6056  140.1316  168.4330 C.ar    1  UNL1        0.1455
     21 O         140.1966  139.8276  167.0223 O.2     1  UNL1       -0.4489
     22 C         138.3449  139.0774  162.8911 C.3     1  UNL1        0.0455
     23 C         138.1613  140.5621  163.0006 C.ar    1  UNL1       -0.0016
     24 C         138.2939  141.2379  164.3331 C.ar    1  UNL1       -0.0011
     25 C         138.1103  142.7226  164.4426 C.ar    1  UNL1        0.0204
     26 C         137.7941  143.5314  163.2196 C.ar    1  UNL1        0.0989
     27 N         137.6616  142.8556  161.8871 N.ar    1  UNL1       -0.2426
     28 C         137.8451  141.3710  161.7776 C.ar    1  UNL1        0.0946
@<TRIPOS>BOND
     1     9    10    2
     2    10    11   am
     3     1    11    1
     4     1     2    1
     5     2     3    1
     6     3     4    1
     7     4     5    1
     8     5     6    1
     9     6     7    1
    10     5     8    1
    11     8    22    1
    12    22    23    1
    13    23    24   ar
    14    24    25   ar
    15    25    26   ar
    16    26    27   ar
    17    27    28   ar
    18    10    13    1
    19    13    14   ar
    20    14    15   ar
    21    15    16   ar
    22    16    17   ar
    23    17    18   ar
    24    18    19   ar
    25    19    20   ar
    26    20    21   ar
    27     8     1    1
    28    28    23   ar
    29    21    13   ar
    30     7     2    1
    31    20    15   ar
    32    11    12    1
