@<TRIPOS>MOLECULE
*****
 35 37 0 0 0
SMALL
GASTEIGER

@<TRIPOS>ATOM
      1 C         142.5425  139.4945  162.8430 C.3     1  UNL1        0.0944
      2 N         141.8975  139.6811  164.1843 N.am    1  UNL1       -0.3005
      3 C         142.6254  139.2709  165.4301 C.2     1  UNL1        0.2474
      4 O         143.9982  138.6742  165.3346 O.2     1  UNL1       -0.2701
      5 H         140.9965  140.0728  164.2470 H       1  UNL1        0.1498
      6 C         141.9803  139.4576  166.7714 C.ar    1  UNL1        0.0725
      7 C         142.7748  139.2319  168.0236 C.ar    1  UNL1        0.0074
      8 C         142.1298  139.4185  169.3649 C.ar    1  UNL1        0.0174
      9 C         140.6903  139.8309  169.4540 C.ar    1  UNL1        0.0888
     10 N         139.8959  140.0565  168.2019 N.ar    1  UNL1       -0.2455
     11 C         140.5409  139.8699  166.8605 C.ar    1  UNL1        0.1030
     12 C         140.0453  140.0175  170.7953 C.3     1  UNL1        0.1878
     13 O         140.5409  141.0865  171.7236 O.3     1  UNL1       -0.3391
     14 C         141.2788  142.2721  171.1763 C.3     1  UNL1        0.2462
     15 C         140.6473  143.1246  170.1158 C.3     1  UNL1        0.4248
     16 F         140.0157  143.9769  169.0554 F       1  UNL1       -0.1674
     17 F         141.8534  142.9343  169.2445 F       1  UNL1       -0.1674
     18 F         139.4412  143.3148  170.9870 F       1  UNL1       -0.1674
     19 C         143.3501  140.6044  162.2382 C.3     1  UNL1        0.0499
     20 C         142.6809  143.0334  162.8722 C.ar    1  UNL1        0.0135
     21 C         142.9339  144.2886  163.6535 C.ar    1  UNL1       -0.0205
     22 C         142.0116  145.4624  163.5063 C.3     1  UNL1        0.0311
     23 C         144.1092  144.3700  164.5820 C.ar    1  UNL1       -0.0019
     24 C         145.0314  143.1963  164.7292 C.ar    1  UNL1        0.0290
     25 C         144.7784  141.9411  163.9480 C.ar    1  UNL1        0.1362
     26 F         145.7007  140.7672  164.0952 F       1  UNL1       -0.2045
     27 C         143.6031  141.8597  163.0195 C.ar    1  UNL1        0.0082
     28 C         139.1551  142.7891  160.0867 C.ar    1  UNL1        0.2449
     29 C         140.4807  143.2727  159.5780 C.ar    1  UNL1        0.1564
     30 N         141.6560  143.3541  160.5065 N.ar    1  UNL1       -0.2374
     31 C         141.5056  142.9520  161.9437 C.ar    1  UNL1        0.1001
     32 C         140.1800  142.4684  162.4524 C.ar    1  UNL1        0.1211
     33 N         139.0047  142.3870  161.5239 N.ar    1  UNL1       -0.2072
     34 C         138.1994  142.5803  157.6799 C.3     1  UNL1        0.2543
     35 O         137.9798  142.7077  159.1582 O.3     1  UNL1       -0.4551
@<TRIPOS>BOND
     1    34    35    1
     2    35    28    1
     3    28    29   ar
     4    29    30   ar
     5    30    31   ar
     6    31    20    1
     7    20    21   ar
     8    21    22    1
     9    21    23   ar
    10    23    24   ar
    11    24    25   ar
    12    25    26    1
    13    25    27   ar
    14    27    19    1
    15    19     1    1
    16     1     2    1
    17     2     3   am
    18     3     4    2
    19     3     6    1
    20     6     7   ar
    21     7     8   ar
    22     8     9   ar
    23     9    12    1
    24    12    13    1
    25    13    14    1
    26    14    15    1
    27    15    16    1
    28    15    17    1
    29    15    18    1
    30     9    10   ar
    31    10    11   ar
    32    31    32   ar
    33    32    33   ar
    34    33    28   ar
    35    27    20   ar
    36    11     6   ar
    37     2     5    1
@<TRIPOS>MOLECULE
*****
 35 37 0 0 0
SMALL
GASTEIGER

@<TRIPOS>ATOM
      1 C         142.1543  138.0008  163.1405 C.3     1  UNL1        0.0944
      2 N         141.8959  138.1211  164.6132 N.am    1  UNL1       -0.3005
      3 C         141.4556  139.4326  165.1928 C.2     1  UNL1        0.2474
      4 O         141.2738  140.6240  164.2997 O.2     1  UNL1       -0.2701
      5 H         142.0152  137.3392  165.1994 H       1  UNL1        0.1498
      6 C         141.1972  139.5529  166.6654 C.ar    1  UNL1        0.0725
      7 C         142.3431  139.5220  167.6330 C.ar    1  UNL1        0.0074
      8 C         142.0847  139.6423  169.1056 C.ar    1  UNL1        0.0174
      9 C         140.6805  139.7934  169.6108 C.ar    1  UNL1        0.0888
     10 N         139.5346  139.8242  168.6434 N.ar    1  UNL1       -0.2455
     11 C         139.7930  139.7040  167.1706 C.ar    1  UNL1        0.1030
     12 C         140.4221  139.9136  171.0834 C.3     1  UNL1        0.1878
     13 O         140.5069  141.2533  171.7529 O.3     1  UNL1       -0.3391
     14 C         141.3264  142.3486  171.1376 C.3     1  UNL1        0.2462
     15 C         140.7205  143.2457  170.0991 C.3     1  UNL1        0.4248
     16 F         140.1147  144.1426  169.0607 F       1  UNL1       -0.1674
     17 F         139.3854  143.1225  170.7716 F       1  UNL1       -0.1674
     18 F         142.0556  143.3689  169.4267 F       1  UNL1       -0.1674
     19 C         143.5381  138.2131  162.6021 C.3     1  UNL1        0.0499
     20 C         144.0076  140.5024  161.4669 C.ar    1  UNL1        0.0135
     21 C         144.6257  141.8686  161.5047 C.ar    1  UNL1       -0.0205
     22 C         144.4772  142.7917  160.3316 C.3     1  UNL1        0.0311
     23 C         145.3922  142.3118  162.7154 C.ar    1  UNL1       -0.0019
     24 C         145.5407  141.3888  163.8884 C.ar    1  UNL1        0.0290
     25 C         144.9227  140.0226  163.8506 C.ar    1  UNL1        0.1362
     26 F         145.0712  139.0995  165.0237 F       1  UNL1       -0.2045
     27 C         144.1561  139.5794  162.6398 C.ar    1  UNL1        0.0082
     28 C         141.7080  139.1728  157.8345 C.ar    1  UNL1        0.2449
     29 C         143.1926  138.9683  157.8986 C.ar    1  UNL1        0.1564
     30 N         143.9591  139.4115  159.1094 N.ar    1  UNL1       -0.2374
     31 C         143.2411  140.0592  160.2561 C.ar    1  UNL1        0.1001
     32 C         141.7565  140.2637  160.1919 C.ar    1  UNL1        0.1211
     33 N         140.9900  139.8206  158.9812 N.ar    1  UNL1       -0.2072
     34 C         139.6609  137.9655  156.7850 C.3     1  UNL1        0.2543
     35 O         140.9415  138.7297  156.6237 O.3     1  UNL1       -0.4551
@<TRIPOS>BOND
     1    34    35    1
     2    35    28    1
     3    28    29   ar
     4    29    30   ar
     5    30    31   ar
     6    31    20    1
     7    20    21   ar
     8    21    22    1
     9    21    23   ar
    10    23    24   ar
    11    24    25   ar
    12    25    26    1
    13    25    27   ar
    14    27    19    1
    15    19     1    1
    16     1     2    1
    17     2     3   am
    18     3     4    2
    19     3     6    1
    20     6     7   ar
    21     7     8   ar
    22     8     9   ar
    23     9    12    1
    24    12    13    1
    25    13    14    1
    26    14    15    1
    27    15    16    1
    28    15    17    1
    29    15    18    1
    30     9    10   ar
    31    10    11   ar
    32    31    32   ar
    33    32    33   ar
    34    33    28   ar
    35    27    20   ar
    36    11     6   ar
    37     2     5    1
@<TRIPOS>MOLECULE
*****
 35 37 0 0 0
SMALL
GASTEIGER

@<TRIPOS>ATOM
      1 C         144.5476  139.9195  163.6086 C.3     1  UNL1        0.0944
      2 N         143.9821  139.9195  164.9979 N.am    1  UNL1       -0.3005
      3 C         142.4967  139.8807  165.2030 C.2     1  UNL1        0.2474
      4 O         141.5768  139.8420  164.0188 O.2     1  UNL1       -0.2701
      5 H         144.5858  139.9449  165.7752 H       1  UNL1        0.1498
      6 C         141.9312  139.8807  166.5923 C.ar    1  UNL1        0.0725
      7 C         140.5094  140.2995  166.8234 C.ar    1  UNL1        0.0074
      8 C         139.9439  140.2995  168.2127 C.ar    1  UNL1        0.0174
      9 C         140.8001  139.8808  169.3709 C.ar    1  UNL1        0.0888
     10 N         142.2218  139.4620  169.1399 N.ar    1  UNL1       -0.2455
     11 C         142.7874  139.4620  167.7506 C.ar    1  UNL1        0.1030
     12 C         140.2346  139.8808  170.7602 C.3     1  UNL1        0.1878
     13 O         140.3247  141.1159  171.6067 O.3     1  UNL1       -0.3391
     14 C         141.1917  142.2606  171.1732 C.3     1  UNL1        0.2462
     15 C         140.6594  143.2833  170.2136 C.3     1  UNL1        0.4248
     16 F         140.1271  144.3059  169.2541 F       1  UNL1       -0.1674
     17 F         139.3905  143.3690  171.0089 F       1  UNL1       -0.1674
     18 F         141.9283  143.1976  169.4184 F       1  UNL1       -0.1674
     19 C         145.0922  141.1874  163.0205 C.3     1  UNL1        0.0499
     20 C         143.3635  142.6435  161.7393 C.ar    1  UNL1        0.0135
     21 C         142.4985  143.8665  161.6622 C.ar    1  UNL1       -0.0205
     22 C         141.6348  144.0995  160.4581 C.3     1  UNL1        0.0311
     23 C         142.4972  144.8565  162.7891 C.ar    1  UNL1       -0.0019
     24 C         143.3609  144.6235  163.9931 C.ar    1  UNL1        0.0290
     25 C         144.2259  143.4005  164.0702 C.ar    1  UNL1        0.1362
     26 F         145.0896  143.1674  165.2743 F       1  UNL1       -0.2045
     27 C         144.2272  142.4104  162.9433 C.ar    1  UNL1        0.0082
     28 C         143.3674  139.6734  158.3586 C.ar    1  UNL1        0.2449
     29 C         144.2813  140.8620  158.3139 C.ar    1  UNL1        0.1564
     30 N         144.2800  141.8520  159.4408 N.ar    1  UNL1       -0.2374
     31 C         143.3648  141.6535  160.6124 C.ar    1  UNL1        0.1001
     32 C         142.4508  140.4649  160.6572 C.ar    1  UNL1        0.1211
     33 N         142.4521  139.4749  159.5303 N.ar    1  UNL1       -0.2072
     34 C         142.1010  137.9770  156.8526 C.3     1  UNL1        0.2543
     35 O         143.3687  138.6834  157.2317 O.3     1  UNL1       -0.4551
@<TRIPOS>BOND
     1    34    35    1
     2    35    28    1
     3    28    29   ar
     4    29    30   ar
     5    30    31   ar
     6    31    20    1
     7    20    21   ar
     8    21    22    1
     9    21    23   ar
    10    23    24   ar
    11    24    25   ar
    12    25    26    1
    13    25    27   ar
    14    27    19    1
    15    19     1    1
    16     1     2    1
    17     2     3   am
    18     3     4    2
    19     3     6    1
    20     6     7   ar
    21     7     8   ar
    22     8     9   ar
    23     9    12    1
    24    12    13    1
    25    13    14    1
    26    14    15    1
    27    15    16    1
    28    15    17    1
    29    15    18    1
    30     9    10   ar
    31    10    11   ar
    32    31    32   ar
    33    32    33   ar
    34    33    28   ar
    35    27    20   ar
    36    11     6   ar
    37     2     5    1
@<TRIPOS>MOLECULE
*****
 35 37 0 0 0
SMALL
GASTEIGER

@<TRIPOS>ATOM
      1 C         138.1799  139.4564  166.4456 C.3     1  UNL1        0.0944
      2 N         138.4177  140.3289  165.2488 N.am    1  UNL1       -0.3005
      3 C         138.6195  139.7098  163.8975 C.2     1  UNL1        0.2474
      4 O         138.5837  138.2183  163.7430 O.2     1  UNL1       -0.2701
      5 H         138.4412  141.3079  165.3502 H       1  UNL1        0.1498
      6 C         138.8572  140.5824  162.7008 C.ar    1  UNL1        0.0725
      7 C         138.0961  141.8656  162.5451 C.ar    1  UNL1        0.0074
      8 C         138.3338  142.7381  161.3484 C.ar    1  UNL1        0.0174
      9 C         139.3326  142.3275  160.3074 C.ar    1  UNL1        0.0888
     10 N         140.0937  141.0444  160.4630 N.ar    1  UNL1       -0.2455
     11 C         139.8560  140.1718  161.6598 C.ar    1  UNL1        0.1030
     12 C         139.5703  143.2000  159.1107 C.3     1  UNL1        0.1878
     13 O         139.5812  144.6925  159.2609 O.3     1  UNL1       -0.3391
     14 C         140.6862  145.3615  160.0234 C.3     1  UNL1        0.2462
     15 C         140.5837  145.5157  161.5120 C.3     1  UNL1        0.4248
     16 F         140.4812  145.6700  163.0004 F       1  UNL1       -0.1674
     17 F         141.6646  144.4915  161.6925 F       1  UNL1       -0.1674
     18 F         139.5028  146.5399  161.3314 F       1  UNL1       -0.1674
     19 C         139.3224  139.0910  167.3462 C.3     1  UNL1        0.0499
     20 C         141.2779  140.7247  167.8539 C.ar    1  UNL1        0.0135
     21 C         141.9048  141.7677  168.7308 C.ar    1  UNL1       -0.0205
     22 C         143.2333  142.3583  168.3615 C.3     1  UNL1        0.0311
     23 C         141.2032  142.2202  169.9770 C.ar    1  UNL1       -0.0019
     24 C         139.8748  141.6297  170.3463 C.ar    1  UNL1        0.0290
     25 C         139.2479  140.5866  169.4694 C.ar    1  UNL1        0.1362
     26 F         137.9193  139.9960  169.8387 F       1  UNL1       -0.2045
     27 C         139.9494  140.1341  168.2232 C.ar    1  UNL1        0.0082
     28 C         143.3825  139.3672  164.1152 C.ar    1  UNL1        0.2449
     29 C         142.4219  140.5178  164.0593 C.ar    1  UNL1        0.1564
     30 N         141.7203  140.9703  165.3056 N.ar    1  UNL1       -0.2374
     31 C         141.9794  140.2722  166.6076 C.ar    1  UNL1        0.1001
     32 C         142.9401  139.1216  166.6635 C.ar    1  UNL1        0.1211
     33 N         143.6417  138.6691  165.4173 N.ar    1  UNL1       -0.2072
     34 C         143.6217  139.4036  161.5284 C.3     1  UNL1        0.2543
     35 O         144.0841  138.9147  162.8690 O.3     1  UNL1       -0.4551
@<TRIPOS>BOND
     1    34    35    1
     2    35    28    1
     3    28    29   ar
     4    29    30   ar
     5    30    31   ar
     6    31    20    1
     7    20    21   ar
     8    21    22    1
     9    21    23   ar
    10    23    24   ar
    11    24    25   ar
    12    25    26    1
    13    25    27   ar
    14    27    19    1
    15    19     1    1
    16     1     2    1
    17     2     3   am
    18     3     4    2
    19     3     6    1
    20     6     7   ar
    21     7     8   ar
    22     8     9   ar
    23     9    12    1
    24    12    13    1
    25    13    14    1
    26    14    15    1
    27    15    16    1
    28    15    17    1
    29    15    18    1
    30     9    10   ar
    31    10    11   ar
    32    31    32   ar
    33    32    33   ar
    34    33    28   ar
    35    27    20   ar
    36    11     6   ar
    37     2     5    1
@<TRIPOS>MOLECULE
*****
 35 37 0 0 0
SMALL
GASTEIGER

@<TRIPOS>ATOM
      1 C         137.4887  141.1172  162.3900 C.3     1  UNL1        0.0944
      2 N         137.8162  141.1885  163.8522 N.am    1  UNL1       -0.3005
      3 C         138.4875  140.0298  164.5278 C.2     1  UNL1        0.2474
      4 O         138.8315  138.7997  163.7414 O.2     1  UNL1       -0.2701
      5 H         137.5904  141.9959  164.3684 H       1  UNL1        0.1498
      6 C         138.8149  140.1012  165.9899 C.ar    1  UNL1        0.0725
      7 C         139.8314  141.0878  166.4836 C.ar    1  UNL1        0.0074
      8 C         140.1588  141.1591  167.9456 C.ar    1  UNL1        0.0174
      9 C         139.4698  140.2440  168.9141 C.ar    1  UNL1        0.0888
     10 N         138.4534  139.2575  168.4204 N.ar    1  UNL1       -0.2455
     11 C         138.1260  139.1861  166.9583 C.ar    1  UNL1        0.1030
     12 C         139.7972  140.3154  170.3761 C.3     1  UNL1        0.1878
     13 O         140.2861  141.6017  170.9733 O.3     1  UNL1       -0.3391
     14 C         141.7433  141.7797  171.2809 C.3     1  UNL1        0.2462
     15 C         142.6954  142.1832  170.1943 C.3     1  UNL1        0.4248
     16 F         143.6475  142.5867  169.1077 F       1  UNL1       -0.1674
     17 F         143.3362  140.8282  170.2524 F       1  UNL1       -0.1674
     18 F         142.0547  143.5382  170.1361 F       1  UNL1       -0.1674
     19 C         138.1133  142.0890  161.4333 C.3     1  UNL1        0.0499
     20 C         140.6012  142.7986  161.6714 C.ar    1  UNL1        0.0135
     21 C         141.6336  143.7719  162.1581 C.ar    1  UNL1       -0.0205
     22 C         143.0892  143.5082  161.9095 C.3     1  UNL1        0.0311
     23 C         141.2104  145.0089  162.8935 C.ar    1  UNL1       -0.0019
     24 C         139.7549  145.2726  163.1422 C.ar    1  UNL1        0.0290
     25 C         138.7226  144.2993  162.6554 C.ar    1  UNL1        0.1362
     26 F         137.2669  144.5630  162.9041 F       1  UNL1       -0.2045
     27 C         139.1457  143.0623  161.9201 C.ar    1  UNL1        0.0082
     28 C         141.8708  139.0876  159.4652 C.ar    1  UNL1        0.2449
     29 C         141.6643  139.0436  160.9503 C.ar    1  UNL1        0.1564
     30 N         141.2412  140.2806  161.6857 N.ar    1  UNL1       -0.2374
     31 C         141.0244  141.5616  160.9360 C.ar    1  UNL1        0.1001
     32 C         141.2308  141.6056  159.4510 C.ar    1  UNL1        0.1211
     33 N         141.6540  140.3686  158.7156 N.ar    1  UNL1       -0.2072
     34 C         141.7799  137.5884  157.3453 C.3     1  UNL1        0.2543
     35 O         142.2939  137.8507  158.7298 O.3     1  UNL1       -0.4551
@<TRIPOS>BOND
     1    34    35    1
     2    35    28    1
     3    28    29   ar
     4    29    30   ar
     5    30    31   ar
     6    31    20    1
     7    20    21   ar
     8    21    22    1
     9    21    23   ar
    10    23    24   ar
    11    24    25   ar
    12    25    26    1
    13    25    27   ar
    14    27    19    1
    15    19     1    1
    16     1     2    1
    17     2     3   am
    18     3     4    2
    19     3     6    1
    20     6     7   ar
    21     7     8   ar
    22     8     9   ar
    23     9    12    1
    24    12    13    1
    25    13    14    1
    26    14    15    1
    27    15    16    1
    28    15    17    1
    29    15    18    1
    30     9    10   ar
    31    10    11   ar
    32    31    32   ar
    33    32    33   ar
    34    33    28   ar
    35    27    20   ar
    36    11     6   ar
    37     2     5    1
@<TRIPOS>MOLECULE
*****
 35 37 0 0 0
SMALL
GASTEIGER

@<TRIPOS>ATOM
      1 C         143.0570  141.1533  161.9185 C.3     1  UNL1        0.0944
      2 N         142.8554  141.2419  163.4023 N.am    1  UNL1       -0.3005
      3 C         143.4012  140.1702  164.2986 C.2     1  UNL1        0.2474
      4 O         144.1487  139.0099  163.7113 O.2     1  UNL1       -0.2701
      5 H         142.3648  142.0034  163.7878 H       1  UNL1        0.1498
      6 C         143.1996  140.2589  165.7823 C.ar    1  UNL1        0.0725
      7 C         143.1116  141.6000  166.4485 C.ar    1  UNL1        0.0074
      8 C         142.9099  141.6886  167.9322 C.ar    1  UNL1        0.0174
      9 C         142.7964  140.4362  168.7498 C.ar    1  UNL1        0.0888
     10 N         142.8844  139.0951  168.0838 N.ar    1  UNL1       -0.2455
     11 C         143.0860  139.0064  166.6000 C.ar    1  UNL1        0.1030
     12 C         142.5947  140.5249  170.2336 C.3     1  UNL1        0.1878
     13 O         141.2155  140.4064  170.8115 O.3     1  UNL1       -0.3391
     14 C         140.0704  141.1370  170.1751 C.3     1  UNL1        0.2462
     15 C         140.0895  142.6346  170.0921 C.3     1  UNL1        0.4248
     16 F         140.1086  144.1322  170.0091 F       1  UNL1       -0.1674
     17 F         140.1772  142.7164  171.5873 F       1  UNL1       -0.1674
     18 F         140.0018  142.5528  168.5970 F       1  UNL1       -0.1674
     19 C         141.9247  141.4710  160.9874 C.3     1  UNL1        0.0499
     20 C         140.0916  143.0209  161.9812 C.ar    1  UNL1        0.0135
     21 C         139.4188  144.3599  162.0481 C.ar    1  UNL1       -0.0205
     22 C         138.2585  144.5708  162.9750 C.3     1  UNL1        0.0311
     23 C         139.9063  145.4879  161.1880 C.ar    1  UNL1       -0.0019
     24 C         141.0666  145.2771  160.2611 C.ar    1  UNL1        0.0290
     25 C         141.7394  143.9381  160.1942 C.ar    1  UNL1        0.1362
     26 F         142.8997  143.7272  159.2673 F       1  UNL1       -0.2045
     27 C         141.2519  142.8100  161.0543 C.ar    1  UNL1        0.0082
     28 C         138.6290  139.6366  164.5615 C.ar    1  UNL1        0.2449
     29 C         139.6006  140.6362  165.1153 C.ar    1  UNL1        0.1564
     30 N         140.0882  141.7643  164.2552 N.ar    1  UNL1       -0.2374
     31 C         139.6041  141.8928  162.8413 C.ar    1  UNL1        0.1001
     32 C         138.6325  140.8932  162.2875 C.ar    1  UNL1        0.1211
     33 N         138.1449  139.7651  163.1476 N.ar    1  UNL1       -0.2072
     34 C         137.9031  138.7306  166.8857 C.3     1  UNL1        0.2543
     35 O         138.1415  138.5085  165.4216 O.3     1  UNL1       -0.4551
@<TRIPOS>BOND
     1    34    35    1
     2    35    28    1
     3    28    29   ar
     4    29    30   ar
     5    30    31   ar
     6    31    20    1
     7    20    21   ar
     8    21    22    1
     9    21    23   ar
    10    23    24   ar
    11    24    25   ar
    12    25    26    1
    13    25    27   ar
    14    27    19    1
    15    19     1    1
    16     1     2    1
    17     2     3   am
    18     3     4    2
    19     3     6    1
    20     6     7   ar
    21     7     8   ar
    22     8     9   ar
    23     9    12    1
    24    12    13    1
    25    13    14    1
    26    14    15    1
    27    15    16    1
    28    15    17    1
    29    15    18    1
    30     9    10   ar
    31    10    11   ar
    32    31    32   ar
    33    32    33   ar
    34    33    28   ar
    35    27    20   ar
    36    11     6   ar
    37     2     5    1
@<TRIPOS>MOLECULE
*****
 35 37 0 0 0
SMALL
GASTEIGER

@<TRIPOS>ATOM
      1 C         143.1767  139.0613  163.3368 C.3     1  UNL1        0.0944
      2 N         142.6709  139.4508  164.6942 N.am    1  UNL1       -0.3005
      3 C         141.6405  140.5325  164.8287 C.2     1  UNL1        0.2474
      4 O         141.1158  141.2247  163.6058 O.2     1  UNL1       -0.2701
      5 H         143.0153  138.9965  165.4969 H       1  UNL1        0.1498
      6 C         141.1348  140.9219  166.1861 C.ar    1  UNL1        0.0725
      7 C         140.6975  139.8640  167.1555 C.ar    1  UNL1        0.0074
      8 C         140.1918  140.2534  168.5129 C.ar    1  UNL1        0.0174
      9 C         140.1233  141.7007  168.9009 C.ar    1  UNL1        0.0888
     10 N         140.5605  142.7586  167.9316 N.ar    1  UNL1       -0.2455
     11 C         141.0663  142.3692  166.5741 C.ar    1  UNL1        0.1030
     12 C         139.6175  142.0902  170.2583 C.3     1  UNL1        0.1878
     13 O         140.5873  142.4347  171.3496 O.3     1  UNL1       -0.3391
     14 C         141.9520  141.8124  171.3643 C.3     1  UNL1        0.2462
     15 C         142.9660  142.2036  170.3303 C.3     1  UNL1        0.4248
     16 F         143.9798  142.5949  169.2965 F       1  UNL1       -0.1674
     17 F         143.3260  140.7604  170.1372 F       1  UNL1       -0.1674
     18 F         142.6059  143.6469  170.5235 F       1  UNL1       -0.1674
     19 C         142.4960  137.9678  162.5681 C.3     1  UNL1        0.0499
     20 C         140.7120  138.7101  160.8313 C.ar    1  UNL1        0.0135
     21 C         139.2751  138.8594  160.4280 C.ar    1  UNL1       -0.0205
     22 C         138.9280  139.4525  159.0946 C.3     1  UNL1        0.0311
     23 C         138.1850  138.4157  161.3580 C.ar    1  UNL1       -0.0019
     24 C         138.5320  137.8227  162.6914 C.ar    1  UNL1        0.0290
     25 C         139.9690  137.6734  163.0947 C.ar    1  UNL1        0.1362
     26 F         140.3160  137.0804  164.4281 F       1  UNL1       -0.2045
     27 C         141.0590  138.1171  162.1647 C.ar    1  UNL1        0.0082
     28 C         143.9821  140.0414  158.0413 C.ar    1  UNL1        0.2449
     29 C         143.4401  140.9905  159.0685 C.ar    1  UNL1        0.1564
     30 N         142.3501  140.5468  159.9985 N.ar    1  UNL1       -0.2374
     31 C         141.8021  139.1539  159.9013 C.ar    1  UNL1        0.1001
     32 C         142.3441  138.2047  158.8741 C.ar    1  UNL1        0.1211
     33 N         143.4341  138.6485  157.9441 N.ar    1  UNL1       -0.2072
     34 C         145.5468  141.9078  157.1367 C.3     1  UNL1        0.2543
     35 O         145.0722  140.4851  157.1113 O.3     1  UNL1       -0.4551
@<TRIPOS>BOND
     1    34    35    1
     2    35    28    1
     3    28    29   ar
     4    29    30   ar
     5    30    31   ar
     6    31    20    1
     7    20    21   ar
     8    21    22    1
     9    21    23   ar
    10    23    24   ar
    11    24    25   ar
    12    25    26    1
    13    25    27   ar
    14    27    19    1
    15    19     1    1
    16     1     2    1
    17     2     3   am
    18     3     4    2
    19     3     6    1
    20     6     7   ar
    21     7     8   ar
    22     8     9   ar
    23     9    12    1
    24    12    13    1
    25    13    14    1
    26    14    15    1
    27    15    16    1
    28    15    17    1
    29    15    18    1
    30     9    10   ar
    31    10    11   ar
    32    31    32   ar
    33    32    33   ar
    34    33    28   ar
    35    27    20   ar
    36    11     6   ar
    37     2     5    1
@<TRIPOS>MOLECULE
*****
 35 37 0 0 0
SMALL
GASTEIGER

@<TRIPOS>ATOM
      1 C         138.0601  140.1149  162.7365 C.3     1  UNL1        0.0944
      2 N         138.4997  139.9768  164.1640 N.am    1  UNL1       -0.3005
      3 C         139.9241  140.2580  164.5406 C.2     1  UNL1        0.2474
      4 O         140.9090  140.6774  163.4899 O.2     1  UNL1       -0.2701
      5 H         137.8533  139.7015  164.8536 H       1  UNL1        0.1498
      6 C         140.3637  140.1198  165.9681 C.ar    1  UNL1        0.0725
      7 C         141.8213  140.1937  166.3146 C.ar    1  UNL1        0.0074
      8 C         142.2608  140.0555  167.7420 C.ar    1  UNL1        0.0174
      9 C         141.2428  139.8434  168.8230 C.ar    1  UNL1        0.0888
     10 N         139.7853  139.7694  168.4766 N.ar    1  UNL1       -0.2455
     11 C         139.3457  139.9076  167.0491 C.ar    1  UNL1        0.1030
     12 C         141.6824  139.7052  170.2505 C.3     1  UNL1        0.1878
     13 O         142.0633  140.9229  171.0392 O.3     1  UNL1       -0.3391
     14 C         141.0453  141.9914  171.3076 C.3     1  UNL1        0.2462
     15 C         140.6172  142.9135  170.2045 C.3     1  UNL1        0.4248
     16 F         140.1892  143.8355  169.1016 F       1  UNL1       -0.1674
     17 F         139.2258  142.3586  170.2806 F       1  UNL1       -0.1674
     18 F         142.0087  143.4684  170.1284 F       1  UNL1       -0.1674
     19 C         137.4603  141.4038  162.2578 C.3     1  UNL1        0.0499
     20 C         139.0537  143.2372  161.3359 C.ar    1  UNL1        0.0135
     21 C         139.7976  144.5261  161.5240 C.ar    1  UNL1       -0.0205
     22 C         140.6470  145.0707  160.4141 C.3     1  UNL1        0.0311
     23 C         139.6921  145.2704  162.8220 C.ar    1  UNL1       -0.0019
     24 C         138.8427  144.7259  163.9320 C.ar    1  UNL1        0.0290
     25 C         138.0988  143.4371  163.7439 C.ar    1  UNL1        0.1362
     26 F         137.2493  142.8925  164.8538 F       1  UNL1       -0.2045
     27 C         138.2043  142.6927  162.4459 C.ar    1  UNL1        0.0082
     28 C         139.3702  141.0042  157.4419 C.ar    1  UNL1        0.2449
     29 C         138.3204  142.0611  157.6172 C.ar    1  UNL1        0.1564
     30 N         138.2149  142.8054  158.9152 N.ar    1  UNL1       -0.2374
     31 C         139.1592  142.4929  160.0379 C.ar    1  UNL1        0.1001
     32 C         140.2090  141.4360  159.8626 C.ar    1  UNL1        0.1211
     33 N         140.3146  140.6916  158.5646 N.ar    1  UNL1       -0.2072
     34 C         138.2406  139.9669  155.3448 C.3     1  UNL1        0.2543
     35 O         139.4757  140.2598  156.1439 O.3     1  UNL1       -0.4551
@<TRIPOS>BOND
     1    34    35    1
     2    35    28    1
     3    28    29   ar
     4    29    30   ar
     5    30    31   ar
     6    31    20    1
     7    20    21   ar
     8    21    22    1
     9    21    23   ar
    10    23    24   ar
    11    24    25   ar
    12    25    26    1
    13    25    27   ar
    14    27    19    1
    15    19     1    1
    16     1     2    1
    17     2     3   am
    18     3     4    2
    19     3     6    1
    20     6     7   ar
    21     7     8   ar
    22     8     9   ar
    23     9    12    1
    24    12    13    1
    25    13    14    1
    26    14    15    1
    27    15    16    1
    28    15    17    1
    29    15    18    1
    30     9    10   ar
    31    10    11   ar
    32    31    32   ar
    33    32    33   ar
    34    33    28   ar
    35    27    20   ar
    36    11     6   ar
    37     2     5    1
@<TRIPOS>MOLECULE
*****
 35 37 0 0 0
SMALL
GASTEIGER

@<TRIPOS>ATOM
      1 C         138.2478  140.9925  165.1746 C.3     1  UNL1        0.0944
      2 N         138.9332  141.8224  164.1299 N.am    1  UNL1       -0.3005
      3 C         138.2735  142.0518  162.8025 C.2     1  UNL1        0.2474
      4 O         136.9283  141.4514  162.5198 O.2     1  UNL1       -0.2701
      5 H         139.8162  142.2164  164.3154 H       1  UNL1        0.1498
      6 C         138.9590  142.8817  161.7578 C.ar    1  UNL1        0.0725
      7 C         138.7919  142.5467  160.3052 C.ar    1  UNL1        0.0074
      8 C         139.4774  143.3765  159.2605 C.ar    1  UNL1        0.0174
      9 C         140.3299  144.5414  159.6683 C.ar    1  UNL1        0.0888
     10 N         140.4969  144.8764  161.1208 N.ar    1  UNL1       -0.2455
     11 C         139.8114  144.0466  162.1656 C.ar    1  UNL1        0.1030
     12 C         141.0154  145.3713  158.6236 C.3     1  UNL1        0.1878
     13 O         140.2041  146.2067  157.6780 O.3     1  UNL1       -0.3391
     14 C         140.1025  145.8187  156.2327 C.3     1  UNL1        0.2462
     15 C         138.7952  145.9547  155.5097 C.3     1  UNL1        0.4248
     16 F         137.4880  146.0907  154.7867 F       1  UNL1       -0.1674
     17 F         138.5778  147.2916  156.1542 F       1  UNL1       -0.1674
     18 F         139.0126  144.6179  154.8652 F       1  UNL1       -0.1674
     19 C         138.8151  139.6600  165.5652 C.3     1  UNL1        0.0499
     20 C         141.3840  139.2743  165.5195 C.ar    1  UNL1        0.0135
     21 C         142.6994  139.2003  166.2366 C.ar    1  UNL1       -0.0205
     22 C         143.9529  138.8887  165.4739 C.3     1  UNL1        0.0311
     23 C         142.7613  139.4378  167.7164 C.ar    1  UNL1       -0.0019
     24 C         141.5079  139.7494  168.4791 C.ar    1  UNL1        0.0290
     25 C         140.1925  139.8234  167.7620 C.ar    1  UNL1        0.1362
     26 F         138.9390  140.1350  168.5248 F       1  UNL1       -0.2045
     27 C         140.1306  139.5859  166.2823 C.ar    1  UNL1        0.0082
     28 C         141.1981  138.5618  161.0802 C.ar    1  UNL1        0.2449
     29 C         141.3839  139.9530  161.6094 C.ar    1  UNL1        0.1564
     30 N         141.4458  140.1905  163.0892 N.ar    1  UNL1       -0.2374
     31 C         141.3220  139.0368  164.0398 C.ar    1  UNL1        0.1001
     32 C         141.1362  137.6457  163.5106 C.ar    1  UNL1        0.1211
     33 N         141.0743  137.4081  162.0308 N.ar    1  UNL1       -0.2072
     34 C         140.2752  139.1970  158.7361 C.3     1  UNL1        0.2543
     35 O         141.1361  138.3243  159.6004 O.3     1  UNL1       -0.4551
@<TRIPOS>BOND
     1    34    35    1
     2    35    28    1
     3    28    29   ar
     4    29    30   ar
     5    30    31   ar
     6    31    20    1
     7    20    21   ar
     8    21    22    1
     9    21    23   ar
    10    23    24   ar
    11    24    25   ar
    12    25    26    1
    13    25    27   ar
    14    27    19    1
    15    19     1    1
    16     1     2    1
    17     2     3   am
    18     3     4    2
    19     3     6    1
    20     6     7   ar
    21     7     8   ar
    22     8     9   ar
    23     9    12    1
    24    12    13    1
    25    13    14    1
    26    14    15    1
    27    15    16    1
    28    15    17    1
    29    15    18    1
    30     9    10   ar
    31    10    11   ar
    32    31    32   ar
    33    32    33   ar
    34    33    28   ar
    35    27    20   ar
    36    11     6   ar
    37     2     5    1
