@<TRIPOS>MOLECULE
*****
 27 29 0 0 0
SMALL
GASTEIGER

@<TRIPOS>ATOM
      1 C         138.2498  144.3275  163.6132 C.3     1  UNL1        0.0896
      2 N         138.6267  143.1426  164.4523 N.3     1  UNL1       -0.2715
      3 C         139.6619  143.2846  165.5285 C.3     1  UNL1        0.0725
      4 C         140.0388  142.0998  166.3676 C.3     1  UNL1        0.0238
      5 C         139.3806  140.7730  166.1305 C.3     1  UNL1        0.0489
      6 C         138.3455  140.6310  165.0542 C.3     1  UNL1        0.0238
      7 C         137.9686  141.8158  164.2151 C.3     1  UNL1        0.0725
      8 C         140.2979  140.4105  167.2607 C.ar    1  UNL1       -0.0202
      9 C         139.7446  140.2081  168.6401 C.ar    1  UNL1       -0.0019
     10 C         140.6617  139.8456  169.7704 C.ar    1  UNL1        0.0293
     11 C         142.1322  139.6854  169.5211 C.ar    1  UNL1        0.1401
     12 F         143.0494  139.3229  170.6513 F       1  UNL1       -0.2042
     13 C         142.6855  139.8878  168.1416 C.ar    1  UNL1        0.0293
     14 C         141.7683  140.2503  167.0114 C.ar    1  UNL1       -0.0019
     15 C         139.0410  139.3202  166.2858 C.3     1  UNL1        0.1467
     16 O         138.8484  138.4610  165.0715 O.3     1  UNL1       -0.3470
     17 C         139.8633  137.4117  164.7266 C.3     1  UNL1        0.1875
     18 C         140.9953  137.7395  163.7986 C.ar    1  UNL1        0.0888
     19 C         142.2110  138.4473  164.3193 C.ar    1  UNL1        0.0211
     20 C         143.3429  138.7751  163.3912 C.ar    1  UNL1        0.0742
     21 C         143.2592  138.3952  161.9426 C.ar    1  UNL1        0.0245
     22 C         142.0434  137.6874  161.4219 C.ar    1  UNL1        0.0985
     23 N         140.9115  137.3596  162.3499 N.ar    1  UNL1       -0.2457
     24 C         144.5588  139.4829  163.9118 C.3     1  UNL1        0.4187
     25 F         145.7745  140.1906  164.4323 F       1  UNL1       -0.1659
     26 F         144.7982  140.0710  162.5528 F       1  UNL1       -0.1659
     27 F         144.3192  138.8947  165.2707 F       1  UNL1       -0.1659
@<TRIPOS>BOND
     1     1     2    1
     2     2     3    1
     3     3     4    1
     4     4     5    1
     5     5    15    1
     6    15    16    1
     7    16    17    1
     8    17    18    1
     9    18    19   ar
    10    19    20   ar
    11    20    24    1
    12    24    25    1
    13    24    26    1
    14    24    27    1
    15    20    21   ar
    16    21    22   ar
    17    22    23   ar
    18     5     8    1
    19     8     9   ar
    20     9    10   ar
    21    10    11   ar
    22    11    12    1
    23    11    13   ar
    24    13    14   ar
    25     5     6    1
    26     6     7    1
    27     7     2    1
    28    23    18   ar
    29    14     8   ar
@<TRIPOS>MOLECULE
*****
 27 29 0 0 0
SMALL
GASTEIGER

@<TRIPOS>ATOM
      1 C         141.0463  141.5642  171.1839 C.3     1  UNL1        0.0896
      2 N         141.2028  141.0161  169.7964 N.3     1  UNL1       -0.2715
      3 C         140.0060  140.4985  169.0550 C.3     1  UNL1        0.0725
      4 C         140.1626  139.9505  167.6675 C.3     1  UNL1        0.0238
      5 C         141.5159  139.9200  167.0214 C.3     1  UNL1        0.0489
      6 C         142.7127  140.4376  167.7628 C.3     1  UNL1        0.0238
      7 C         142.5562  140.9856  169.1503 C.3     1  UNL1        0.0725
      8 C         140.6893  139.3194  165.9231 C.ar    1  UNL1       -0.0202
      9 C         141.2314  138.1777  165.1152 C.ar    1  UNL1       -0.0019
     10 C         140.4049  137.5771  164.0170 C.ar    1  UNL1        0.0293
     11 C         139.0364  138.1182  163.7267 C.ar    1  UNL1        0.1401
     12 F         138.2098  137.5175  162.6284 F       1  UNL1       -0.2042
     13 C         138.4942  139.2598  164.5346 C.ar    1  UNL1        0.0293
     14 C         139.3208  139.8604  165.6329 C.ar    1  UNL1       -0.0019
     15 C         142.5822  139.6809  165.9938 C.3     1  UNL1        0.1467
     16 O         143.4956  140.7990  165.5867 O.3     1  UNL1       -0.3470
     17 C         143.2607  141.5272  164.2965 C.3     1  UNL1        0.1875
     18 C         141.8790  141.9855  163.9347 C.ar    1  UNL1        0.0888
     19 C         141.1668  142.9791  164.8039 C.ar    1  UNL1        0.0211
     20 C         139.7851  143.4373  164.4420 C.ar    1  UNL1        0.0742
     21 C         139.1156  142.9020  163.2111 C.ar    1  UNL1        0.0245
     22 C         139.8279  141.9083  162.3419 C.ar    1  UNL1        0.0985
     23 N         141.2096  141.4501  162.7037 N.ar    1  UNL1       -0.2457
     24 C         139.0727  144.4309  165.3112 C.3     1  UNL1        0.4187
     25 F         138.3604  145.4245  166.1803 F       1  UNL1       -0.1659
     26 F         139.6754  143.7969  166.5298 F       1  UNL1       -0.1659
     27 F         138.4702  145.0649  164.0926 F       1  UNL1       -0.1659
@<TRIPOS>BOND
     1     1     2    1
     2     2     3    1
     3     3     4    1
     4     4     5    1
     5     5    15    1
     6    15    16    1
     7    16    17    1
     8    17    18    1
     9    18    19   ar
    10    19    20   ar
    11    20    24    1
    12    24    25    1
    13    24    26    1
    14    24    27    1
    15    20    21   ar
    16    21    22   ar
    17    22    23   ar
    18     5     8    1
    19     8     9   ar
    20     9    10   ar
    21    10    11   ar
    22    11    12    1
    23    11    13   ar
    24    13    14   ar
    25     5     6    1
    26     6     7    1
    27     7     2    1
    28    23    18   ar
    29    14     8   ar
@<TRIPOS>MOLECULE
*****
 27 29 0 0 0
SMALL
GASTEIGER

@<TRIPOS>ATOM
      1 C         139.0824  144.9047  162.8926 C.3     1  UNL1        0.0896
      2 N         139.9500  144.1249  163.8355 N.3     1  UNL1       -0.2715
      3 C         139.5139  143.9132  165.2550 C.3     1  UNL1        0.0725
      4 C         140.3815  143.1334  166.1978 C.3     1  UNL1        0.0238
      5 C         141.6853  142.5651  165.7213 C.3     1  UNL1        0.0489
      6 C         142.1215  142.7768  164.3018 C.3     1  UNL1        0.0238
      7 C         141.2538  143.5567  163.3589 C.3     1  UNL1        0.0725
      8 C         141.7042  142.1001  167.1473 C.ar    1  UNL1       -0.0202
      9 C         142.9851  142.1251  167.9274 C.ar    1  UNL1       -0.0019
     10 C         143.0041  141.6600  169.3533 C.ar    1  UNL1        0.0293
     11 C         141.7420  141.1699  169.9991 C.ar    1  UNL1        0.1401
     12 F         141.7609  140.7048  171.4251 F       1  UNL1       -0.2042
     13 C         140.4611  141.1448  169.2190 C.ar    1  UNL1        0.0293
     14 C         140.4422  141.6099  167.7930 C.ar    1  UNL1       -0.0019
     15 C         142.9957  141.8354  165.7399 C.3     1  UNL1        0.1467
     16 O         143.3204  140.8493  164.6573 O.3     1  UNL1       -0.3470
     17 C         143.0470  139.3892  164.8660 C.3     1  UNL1        0.1875
     18 C         141.6997  138.8228  164.5286 C.ar    1  UNL1        0.0888
     19 C         140.5932  138.8656  165.5406 C.ar    1  UNL1        0.0211
     20 C         139.2460  138.2991  165.2030 C.ar    1  UNL1        0.0742
     21 C         139.0050  137.6899  163.8537 C.ar    1  UNL1        0.0245
     22 C         140.1115  137.6471  162.8417 C.ar    1  UNL1        0.0985
     23 N         141.4588  138.2136  163.1792 N.ar    1  UNL1       -0.2457
     24 C         138.1394  138.3419  166.2149 C.3     1  UNL1        0.4187
     25 F         137.0330  138.3846  167.2268 F       1  UNL1       -0.1659
     26 F         138.1237  136.8426  166.2609 F       1  UNL1       -0.1659
     27 F         138.1553  139.8411  166.1689 F       1  UNL1       -0.1659
@<TRIPOS>BOND
     1     1     2    1
     2     2     3    1
     3     3     4    1
     4     4     5    1
     5     5    15    1
     6    15    16    1
     7    16    17    1
     8    17    18    1
     9    18    19   ar
    10    19    20   ar
    11    20    24    1
    12    24    25    1
    13    24    26    1
    14    24    27    1
    15    20    21   ar
    16    21    22   ar
    17    22    23   ar
    18     5     8    1
    19     8     9   ar
    20     9    10   ar
    21    10    11   ar
    22    11    12    1
    23    11    13   ar
    24    13    14   ar
    25     5     6    1
    26     6     7    1
    27     7     2    1
    28    23    18   ar
    29    14     8   ar
@<TRIPOS>MOLECULE
*****
 27 29 0 0 0
SMALL
GASTEIGER

@<TRIPOS>ATOM
      1 C         141.8160  141.5408  171.0884 C.3     1  UNL1        0.0896
      2 N         141.7511  141.8515  169.6224 N.3     1  UNL1       -0.2715
      3 C         140.4798  142.3745  169.0222 C.3     1  UNL1        0.0725
      4 C         140.4149  142.6853  167.5562 C.3     1  UNL1        0.0238
      5 C         141.6213  142.4731  166.6904 C.3     1  UNL1        0.0489
      6 C         142.8926  141.9501  167.2906 C.3     1  UNL1        0.0238
      7 C         142.9574  141.6393  168.7567 C.3     1  UNL1        0.0725
      8 C         140.6521  142.9840  165.6659 C.ar    1  UNL1       -0.0202
      9 C         141.1028  143.9784  164.6373 C.ar    1  UNL1       -0.0019
     10 C         140.1336  144.4894  163.6128 C.ar    1  UNL1        0.0293
     11 C         138.7137  144.0059  163.6169 C.ar    1  UNL1        0.1401
     12 F         137.7445  144.5168  162.5924 F       1  UNL1       -0.2042
     13 C         138.2629  143.0115  164.6455 C.ar    1  UNL1        0.0293
     14 C         139.2322  142.5005  165.6700 C.ar    1  UNL1       -0.0019
     15 C         142.4911  142.4383  165.4688 C.3     1  UNL1        0.1467
     16 O         143.2777  141.2033  165.1431 O.3     1  UNL1       -0.3470
     17 C         142.8276  140.2979  164.0350 C.3     1  UNL1        0.1875
     18 C         141.3672  140.0114  163.8471 C.ar    1  UNL1        0.0888
     19 C         140.6122  139.2469  164.8938 C.ar    1  UNL1        0.0211
     20 C         139.1519  138.9604  164.7058 C.ar    1  UNL1        0.0742
     21 C         138.4466  139.4382  163.4712 C.ar    1  UNL1        0.0245
     22 C         139.2017  140.2027  162.4245 C.ar    1  UNL1        0.0985
     23 N         140.6620  140.4893  162.6124 N.ar    1  UNL1       -0.2457
     24 C         138.3967  138.1959  165.7525 C.3     1  UNL1        0.4187
     25 F         137.6416  137.4315  166.7991 F       1  UNL1       -0.1659
     26 F         137.6882  139.4537  166.1599 F       1  UNL1       -0.1659
     27 F         139.1053  136.9381  165.3450 F       1  UNL1       -0.1659
@<TRIPOS>BOND
     1     1     2    1
     2     2     3    1
     3     3     4    1
     4     4     5    1
     5     5    15    1
     6    15    16    1
     7    16    17    1
     8    17    18    1
     9    18    19   ar
    10    19    20   ar
    11    20    24    1
    12    24    25    1
    13    24    26    1
    14    24    27    1
    15    20    21   ar
    16    21    22   ar
    17    22    23   ar
    18     5     8    1
    19     8     9   ar
    20     9    10   ar
    21    10    11   ar
    22    11    12    1
    23    11    13   ar
    24    13    14   ar
    25     5     6    1
    26     6     7    1
    27     7     2    1
    28    23    18   ar
    29    14     8   ar
@<TRIPOS>MOLECULE
*****
 27 29 0 0 0
SMALL
GASTEIGER

@<TRIPOS>ATOM
      1 C         139.7621  142.7595  170.7005 C.3     1  UNL1        0.0896
      2 N         140.3910  142.0840  169.5180 N.3     1  UNL1       -0.2715
      3 C         141.5424  142.7326  168.8084 C.3     1  UNL1        0.0725
      4 C         142.1712  142.0571  167.6260 C.3     1  UNL1        0.0238
      5 C         141.6487  140.7330  167.1531 C.3     1  UNL1        0.0489
      6 C         140.4973  140.0843  167.8627 C.3     1  UNL1        0.0238
      7 C         139.8685  140.7598  169.0451 C.3     1  UNL1        0.0725
      8 C         142.7517  140.9476  166.1594 C.ar    1  UNL1       -0.0202
      9 C         143.4852  139.7710  165.5873 C.ar    1  UNL1       -0.0019
     10 C         144.5882  139.9856  164.5936 C.ar    1  UNL1        0.0293
     11 C         144.9576  141.3769  164.1721 C.ar    1  UNL1        0.1401
     12 F         146.0606  141.5916  163.1784 F       1  UNL1       -0.2042
     13 C         144.2241  142.5536  164.7442 C.ar    1  UNL1        0.0293
     14 C         143.1211  142.3390  165.7379 C.ar    1  UNL1       -0.0019
     15 C         141.5092  139.4833  166.3351 C.3     1  UNL1        0.1467
     16 O         140.1669  139.0851  165.7970 O.3     1  UNL1       -0.3470
     17 C         139.8434  139.3069  164.3491 C.3     1  UNL1        0.1875
     18 C         139.1673  140.5743  163.9173 C.ar    1  UNL1        0.0888
     19 C         139.1728  141.7724  164.8198 C.ar    1  UNL1        0.0211
     20 C         138.4966  143.0397  164.3879 C.ar    1  UNL1        0.0742
     21 C         137.8149  143.1090  163.0536 C.ar    1  UNL1        0.0245
     22 C         137.8094  141.9109  162.1510 C.ar    1  UNL1        0.0985
     23 N         138.4856  140.6435  162.5829 N.ar    1  UNL1       -0.2457
     24 C         138.5021  144.2379  165.2904 C.3     1  UNL1        0.4187
     25 F         138.5075  145.4361  166.1928 F       1  UNL1       -0.1659
     26 F         137.2024  144.6923  164.6949 F       1  UNL1       -0.1659
     27 F         139.8017  143.7835  165.8858 F       1  UNL1       -0.1659
@<TRIPOS>BOND
     1     1     2    1
     2     2     3    1
     3     3     4    1
     4     4     5    1
     5     5    15    1
     6    15    16    1
     7    16    17    1
     8    17    18    1
     9    18    19   ar
    10    19    20   ar
    11    20    24    1
    12    24    25    1
    13    24    26    1
    14    24    27    1
    15    20    21   ar
    16    21    22   ar
    17    22    23   ar
    18     5     8    1
    19     8     9   ar
    20     9    10   ar
    21    10    11   ar
    22    11    12    1
    23    11    13   ar
    24    13    14   ar
    25     5     6    1
    26     6     7    1
    27     7     2    1
    28    23    18   ar
    29    14     8   ar
@<TRIPOS>MOLECULE
*****
 27 29 0 0 0
SMALL
GASTEIGER

@<TRIPOS>ATOM
      1 C         144.9084  142.6390  162.7594 C.3     1  UNL1        0.0896
      2 N         144.1572  142.0131  163.8970 N.3     1  UNL1       -0.2715
      3 C         143.9445  142.7809  165.1679 C.3     1  UNL1        0.0725
      4 C         143.1933  142.1551  166.3054 C.3     1  UNL1        0.0238
      5 C         142.6549  140.7614  166.1721 C.3     1  UNL1        0.0489
      6 C         142.8677  139.9936  164.9013 C.3     1  UNL1        0.0238
      7 C         143.6189  140.6195  163.7637 C.3     1  UNL1        0.0725
      8 C         142.2003  141.0842  167.5647 C.ar    1  UNL1       -0.0202
      9 C         142.5482  140.1663  168.6989 C.ar    1  UNL1       -0.0019
     10 C         142.0937  140.4889  170.0914 C.ar    1  UNL1        0.0293
     11 C         141.2912  141.7296  170.3498 C.ar    1  UNL1        0.1401
     12 F         140.8366  142.0524  171.7423 F       1  UNL1       -0.2042
     13 C         140.9432  142.6476  169.2156 C.ar    1  UNL1        0.0293
     14 C         141.3978  142.3248  167.8231 C.ar    1  UNL1       -0.0019
     15 C         141.9586  139.4798  166.5225 C.3     1  UNL1        0.1467
     16 O         141.0539  138.8206  165.5240 O.3     1  UNL1       -0.3470
     17 C         139.5702  139.0250  165.6069 C.3     1  UNL1        0.1875
     18 C         138.9277  140.1634  164.8712 C.ar    1  UNL1        0.0888
     19 C         139.0810  141.5665  165.3792 C.ar    1  UNL1        0.0211
     20 C         138.4385  142.7048  164.6435 C.ar    1  UNL1        0.0742
     21 C         137.6427  142.4403  163.3998 C.ar    1  UNL1        0.0245
     22 C         137.4894  141.0372  162.8918 C.ar    1  UNL1        0.0985
     23 N         138.1318  139.8988  163.6275 N.ar    1  UNL1       -0.2457
     24 C         138.5918  144.1079  165.1514 C.3     1  UNL1        0.4187
     25 F         138.7451  145.5109  165.6593 F       1  UNL1       -0.1659
     26 F         137.1093  144.3091  165.0428 F       1  UNL1       -0.1659
     27 F         140.0743  143.9066  165.2599 F       1  UNL1       -0.1659
@<TRIPOS>BOND
     1     1     2    1
     2     2     3    1
     3     3     4    1
     4     4     5    1
     5     5    15    1
     6    15    16    1
     7    16    17    1
     8    17    18    1
     9    18    19   ar
    10    19    20   ar
    11    20    24    1
    12    24    25    1
    13    24    26    1
    14    24    27    1
    15    20    21   ar
    16    21    22   ar
    17    22    23   ar
    18     5     8    1
    19     8     9   ar
    20     9    10   ar
    21    10    11   ar
    22    11    12    1
    23    11    13   ar
    24    13    14   ar
    25     5     6    1
    26     6     7    1
    27     7     2    1
    28    23    18   ar
    29    14     8   ar
@<TRIPOS>MOLECULE
*****
 27 29 0 0 0
SMALL
GASTEIGER

@<TRIPOS>ATOM
      1 C         144.7532  142.9482  162.8926 C.3     1  UNL1        0.0896
      2 N         143.6126  142.8809  163.8645 N.3     1  UNL1       -0.2715
      3 C         143.7141  142.0090  165.0807 C.3     1  UNL1        0.0725
      4 C         142.5735  141.9417  166.0526 C.3     1  UNL1        0.0238
      5 C         141.3315  142.7464  165.8082 C.3     1  UNL1        0.0489
      6 C         141.2300  143.6184  164.5920 C.3     1  UNL1        0.0238
      7 C         142.3706  143.6856  163.6201 C.3     1  UNL1        0.0725
      8 C         140.9563  142.0727  167.0949 C.ar    1  UNL1       -0.0202
      9 C         140.9609  140.5755  167.1866 C.ar    1  UNL1       -0.0019
     10 C         140.5857  139.9017  168.4731 C.ar    1  UNL1        0.0293
     11 C         140.2061  140.7252  169.6680 C.ar    1  UNL1        0.1401
     12 F         139.8309  140.0514  170.9546 F       1  UNL1       -0.2042
     13 C         140.2015  142.2223  169.5764 C.ar    1  UNL1        0.0293
     14 C         140.5766  142.8961  168.2897 C.ar    1  UNL1       -0.0019
     15 C         139.9591  143.3172  166.0107 C.3     1  UNL1        0.1467
     16 O         139.0987  143.6399  164.8251 O.3     1  UNL1       -0.3470
     17 C         138.1416  142.6152  164.2919 C.3     1  UNL1        0.1875
     18 C         138.5454  141.1719  164.2310 C.ar    1  UNL1        0.0888
     19 C         138.0591  140.2123  165.2764 C.ar    1  UNL1        0.0211
     20 C         138.4629  138.7690  165.2154 C.ar    1  UNL1        0.0742
     21 C         139.3528  138.2852  164.1092 C.ar    1  UNL1        0.0245
     22 C         139.8391  139.2447  163.0637 C.ar    1  UNL1        0.0985
     23 N         139.4353  140.6881  163.1246 N.ar    1  UNL1       -0.2457
     24 C         137.9767  137.8094  166.2609 C.3     1  UNL1        0.4187
     25 F         137.4905  136.8498  167.3062 F       1  UNL1       -0.1659
     26 F         137.2355  138.9235  166.9387 F       1  UNL1       -0.1659
     27 F         138.7180  136.6954  165.5830 F       1  UNL1       -0.1659
@<TRIPOS>BOND
     1     1     2    1
     2     2     3    1
     3     3     4    1
     4     4     5    1
     5     5    15    1
     6    15    16    1
     7    16    17    1
     8    17    18    1
     9    18    19   ar
    10    19    20   ar
    11    20    24    1
    12    24    25    1
    13    24    26    1
    14    24    27    1
    15    20    21   ar
    16    21    22   ar
    17    22    23   ar
    18     5     8    1
    19     8     9   ar
    20     9    10   ar
    21    10    11   ar
    22    11    12    1
    23    11    13   ar
    24    13    14   ar
    25     5     6    1
    26     6     7    1
    27     7     2    1
    28    23    18   ar
    29    14     8   ar
@<TRIPOS>MOLECULE
*****
 27 29 0 0 0
SMALL
GASTEIGER

@<TRIPOS>ATOM
      1 C         141.9268  141.0877  171.0971 C.3     1  UNL1        0.0896
      2 N         142.1848  140.9774  169.6235 N.3     1  UNL1       -0.2715
      3 C         142.7710  142.1381  168.8758 C.3     1  UNL1        0.0725
      4 C         143.0291  142.0278  167.4023 C.3     1  UNL1        0.0238
      5 C         142.7009  140.7568  166.6765 C.3     1  UNL1        0.0489
      6 C         142.1146  139.5961  167.4242 C.3     1  UNL1        0.0238
      7 C         141.8566  139.7064  168.8977 C.3     1  UNL1        0.0725
      8 C         143.2379  141.5748  165.5396 C.ar    1  UNL1       -0.0202
      9 C         142.9411  143.0433  165.4663 C.ar    1  UNL1       -0.0019
     10 C         143.4781  143.8613  164.3295 C.ar    1  UNL1        0.0293
     11 C         144.3120  143.2107  163.2658 C.ar    1  UNL1        0.1401
     12 F         144.8491  144.0286  162.1289 F       1  UNL1       -0.2042
     13 C         144.6089  141.7422  163.3390 C.ar    1  UNL1        0.0293
     14 C         144.0718  140.9242  164.4759 C.ar    1  UNL1       -0.0019
     15 C         142.5592  139.7699  165.5558 C.3     1  UNL1        0.1467
     16 O         141.2854  138.9940  165.3964 O.3     1  UNL1       -0.3470
     17 C         140.2910  139.3922  164.3462 C.3     1  UNL1        0.1875
     18 C         140.2342  140.8126  163.8675 C.ar    1  UNL1        0.0888
     19 C         139.5856  141.8651  164.7172 C.ar    1  UNL1        0.0211
     20 C         139.5288  143.2854  164.2384 C.ar    1  UNL1        0.0742
     21 C         140.1204  143.6535  162.9101 C.ar    1  UNL1        0.0245
     22 C         140.7690  142.6011  162.0604 C.ar    1  UNL1        0.0985
     23 N         140.8258  141.1806  162.5391 N.ar    1  UNL1       -0.2457
     24 C         138.8802  144.3379  165.0880 C.3     1  UNL1        0.4187
     25 F         138.2318  145.3903  165.9376 F       1  UNL1       -0.1659
     26 F         139.7272  143.9192  166.2531 F       1  UNL1       -0.1659
     27 F         138.0334  144.7566  163.9229 F       1  UNL1       -0.1659
@<TRIPOS>BOND
     1     1     2    1
     2     2     3    1
     3     3     4    1
     4     4     5    1
     5     5    15    1
     6    15    16    1
     7    16    17    1
     8    17    18    1
     9    18    19   ar
    10    19    20   ar
    11    20    24    1
    12    24    25    1
    13    24    26    1
    14    24    27    1
    15    20    21   ar
    16    21    22   ar
    17    22    23   ar
    18     5     8    1
    19     8     9   ar
    20     9    10   ar
    21    10    11   ar
    22    11    12    1
    23    11    13   ar
    24    13    14   ar
    25     5     6    1
    26     6     7    1
    27     7     2    1
    28    23    18   ar
    29    14     8   ar
@<TRIPOS>MOLECULE
*****
 27 29 0 0 0
SMALL
GASTEIGER

@<TRIPOS>ATOM
      1 C         138.8096  137.6652  163.3071 C.3     1  UNL1        0.0896
      2 N         139.4599  138.4743  164.3899 N.3     1  UNL1       -0.2715
      3 C         138.6220  139.0958  165.4676 C.3     1  UNL1        0.0725
      4 C         139.2723  139.9049  166.5504 C.3     1  UNL1        0.0238
      5 C         140.7604  140.0925  166.5555 C.3     1  UNL1        0.0489
      6 C         141.5984  139.4710  165.4778 C.3     1  UNL1        0.0238
      7 C         140.9481  138.6618  164.3950 C.3     1  UNL1        0.0725
      8 C         140.3953  140.8734  167.7831 C.ar    1  UNL1       -0.0202
      9 C         139.6184  140.2174  168.8858 C.ar    1  UNL1       -0.0019
     10 C         139.2532  140.9982  170.1133 C.ar    1  UNL1        0.0293
     11 C         139.6650  142.4351  170.2382 C.ar    1  UNL1        0.1401
     12 F         139.2999  143.2160  171.4658 F       1  UNL1       -0.2042
     13 C         140.4420  143.0912  169.1356 C.ar    1  UNL1        0.0293
     14 C         140.8071  142.3103  167.9080 C.ar    1  UNL1       -0.0019
     15 C         142.1219  140.5513  166.9870 C.3     1  UNL1        0.1467
     16 O         143.1715  140.8551  165.9593 O.3     1  UNL1       -0.3470
     17 C         143.7139  142.2477  165.8303 C.3     1  UNL1        0.1875
     18 C         143.0419  143.2330  164.9206 C.ar    1  UNL1        0.0888
     19 C         141.5526  143.4051  164.9705 C.ar    1  UNL1        0.0211
     20 C         140.8808  144.3905  164.0607 C.ar    1  UNL1        0.0742
     21 C         141.6980  145.2037  163.1012 C.ar    1  UNL1        0.0245
     22 C         143.1873  145.0316  163.0513 C.ar    1  UNL1        0.0985
     23 N         143.8593  144.0462  163.9611 N.ar    1  UNL1       -0.2457
     24 C         139.3914  144.5627  164.1105 C.3     1  UNL1        0.4187
     25 F         137.9022  144.7349  164.1604 F       1  UNL1       -0.1659
     26 F         139.3981  144.1991  165.5658 F       1  UNL1       -0.1659
     27 F         139.3848  144.9262  162.6553 F       1  UNL1       -0.1659
@<TRIPOS>BOND
     1     1     2    1
     2     2     3    1
     3     3     4    1
     4     4     5    1
     5     5    15    1
     6    15    16    1
     7    16    17    1
     8    17    18    1
     9    18    19   ar
    10    19    20   ar
    11    20    24    1
    12    24    25    1
    13    24    26    1
    14    24    27    1
    15    20    21   ar
    16    21    22   ar
    17    22    23   ar
    18     5     8    1
    19     8     9   ar
    20     9    10   ar
    21    10    11   ar
    22    11    12    1
    23    11    13   ar
    24    13    14   ar
    25     5     6    1
    26     6     7    1
    27     7     2    1
    28    23    18   ar
    29    14     8   ar
