@<TRIPOS>MOLECULE
*****
 40 45 0 0 0
SMALL
GASTEIGER

@<TRIPOS>ATOM
      1 C         140.5838  137.7076  164.3403 C.3     1  UNL1        0.0932
      2 C         141.7933  138.1973  165.0801 C.3     1  UNL1        0.0286
      3 C         143.0440  138.5424  164.3276 C.3     1  UNL1        0.0193
      4 C         143.0854  138.3978  162.8351 C.3     1  UNL1        0.0700
      5 C         141.8759  137.9081  162.0952 C.3     1  UNL1        0.0193
      6 C         140.6251  137.5630  162.8479 C.3     1  UNL1        0.0286
      7 C         142.3774  138.1964  163.2041 C.3     1  UNL1        0.1562
      8 O         141.2464  137.8843  163.8845 O.3     1  UNL1       -0.3572
      9 N         144.3362  138.7429  162.0825 N.3     1  UNL1       -0.2926
     10 H         144.4434  138.0397  161.3514 H       1  UNL1        0.1236
     11 C         144.4667  140.0814  161.4183 C.3     1  UNL1        0.1148
     12 C         143.8851  141.3014  162.0689 C.ar    1  UNL1        0.0723
     13 N         142.6900  141.9765  161.4639 N.ar    1  UNL1       -0.2308
     14 C         142.1083  143.1965  162.1146 C.ar    1  UNL1        0.1679
     15 C         142.7218  143.7414  163.3702 C.ar    1  UNL1        0.1664
     16 C         143.9169  143.0664  163.9752 C.ar    1  UNL1        0.0122
     17 C         144.5304  143.6114  165.2309 C.3     1  UNL1        0.0340
     18 C         144.4985  141.8464  163.3246 C.ar    1  UNL1       -0.0079
     19 C         145.6936  141.1714  163.9297 C.3     1  UNL1        0.0321
     20 O         142.1402  144.9615  164.0209 O.3     1  UNL1       -0.4631
     21 C         140.9451  145.6365  163.4158 C.3     1  UNL1        0.2898
     22 C         140.3316  145.0915  162.1601 C.2     1  UNL1        0.2718
     23 O         139.1365  145.7665  161.5551 O.2     1  UNL1       -0.2707
     24 N         140.9132  143.8715  161.5095 N.am    1  UNL1       -0.2639
     25 H         140.5106  143.5139  160.6854 H       1  UNL1        0.1565
     26 C         139.3330  137.3625  165.0928 C.3     1  UNL1        0.0320
     27 C         138.3534  138.4397  165.4535 C.3     1  UNL1        0.0327
     28 C         140.3228  141.4060  168.2053 C.ar    1  UNL1        0.2250
     29 C         140.5550  142.8152  167.7466 C.ar    1  UNL1        0.0593
     30 C         140.1306  143.2355  166.3706 C.ar    1  UNL1        0.0254
     31 C         139.4742  142.2468  165.4534 C.ar    1  UNL1        0.0990
     32 N         139.0498  142.6671  164.0774 N.ar    1  UNL1       -0.2400
     33 C         138.3934  141.6784  163.1602 C.ar    1  UNL1        0.1281
     34 C         138.1612  140.2692  163.6189 C.ar    1  UNL1        0.1566
     35 F         137.5047  139.2805  162.7016 F       1  UNL1       -0.2028
     36 C         138.5855  139.8488  164.9948 C.ar    1  UNL1        0.0261
     37 C         139.2420  140.8377  165.9121 C.ar    1  UNL1        0.1002
     38 N         139.6663  140.4173  167.2880 N.ar    1  UNL1       -0.2104
     39 C         141.4055  139.6540  169.7890 C.3     1  UNL1        0.2542
     40 O         140.7472  140.9857  169.5812 O.3     1  UNL1       -0.4561
@<TRIPOS>BOND
     1    39    40    1
     2    40    28    1
     3    28    29   ar
     4    29    30   ar
     5    30    31   ar
     6    31    32   ar
     7    32    33   ar
     8    33    34   ar
     9    34    35    1
    10    34    36   ar
    11    36    27    1
    12    27    26    1
    13    26     1    1
    14     1     2    1
    15     2     3    1
    16     3     4    1
    17     4     9    1
    18     9    11    1
    19    11    12    1
    20    12    13   ar
    21    13    14   ar
    22    14    15   ar
    23    15    16   ar
    24    16    17    1
    25    16    18   ar
    26    18    19    1
    27    15    20    1
    28    20    21    1
    29    21    22    1
    30    22    23    2
    31    22    24   am
    32     4     5    1
    33     5     6    1
    34     4     7    1
    35     7     8    1
    36    36    37   ar
    37    37    38   ar
    38    38    28   ar
    39    37    31   ar
    40     6     1    1
    41     8     1    1
    42    18    12   ar
    43    24    14    1
    44     9    10    1
    45    24    25    1
@<TRIPOS>MOLECULE
*****
 40 45 0 0 0
SMALL
GASTEIGER

@<TRIPOS>ATOM
      1 C         144.7960  140.4090  163.3576 C.3     1  UNL1        0.0932
      2 C         144.4023  140.3290  161.9124 C.3     1  UNL1        0.0286
      3 C         143.3849  139.3208  161.4669 C.3     1  UNL1        0.0193
      4 C         142.7612  138.3925  162.4667 C.3     1  UNL1        0.0700
      5 C         143.1549  138.4726  163.9119 C.3     1  UNL1        0.0193
      6 C         144.1723  139.4808  164.3573 C.3     1  UNL1        0.0286
      7 C         143.3142  138.9285  162.7582 C.3     1  UNL1        0.1562
      8 O         144.2341  139.8401  163.1610 O.3     1  UNL1       -0.3572
      9 N         141.7439  137.3843  162.0212 N.3     1  UNL1       -0.2926
     10 H         141.6689  136.6924  162.7669 H       1  UNL1        0.1236
     11 C         140.3469  137.8224  161.6948 C.3     1  UNL1        0.1148
     12 C         139.7062  138.9302  162.4772 C.ar    1  UNL1        0.0723
     13 N         139.5963  140.3026  161.8818 N.ar    1  UNL1       -0.2308
     14 C         138.9555  141.4105  162.6642 C.ar    1  UNL1        0.1679
     15 C         138.4247  141.1459  164.0420 C.ar    1  UNL1        0.1664
     16 C         138.5346  139.7735  164.6373 C.ar    1  UNL1        0.0122
     17 C         138.0038  139.5090  166.0152 C.3     1  UNL1        0.0340
     18 C         139.1753  138.6657  163.8550 C.ar    1  UNL1       -0.0079
     19 C         139.2852  137.2933  164.4504 C.3     1  UNL1        0.0321
     20 O         137.7840  142.2538  164.8244 O.3     1  UNL1       -0.4631
     21 C         137.6740  143.6262  164.2290 C.3     1  UNL1        0.2898
     22 C         138.2049  143.8907  162.8512 C.2     1  UNL1        0.2718
     23 O         138.0950  145.2631  162.2559 O.2     1  UNL1       -0.2707
     24 N         138.8456  142.7828  162.0689 N.am    1  UNL1       -0.2639
     25 H         139.1940  142.9565  161.1646 H       1  UNL1        0.1565
     26 C         145.8133  141.4172  163.8031 C.3     1  UNL1        0.0320
     27 C         145.3790  142.6360  164.5621 C.3     1  UNL1        0.0327
     28 C         142.3705  141.6114  167.7480 C.ar    1  UNL1        0.2250
     29 C         140.9583  142.1034  167.6320 C.ar    1  UNL1        0.0593
     30 C         140.5489  142.9370  166.4541 C.ar    1  UNL1        0.0254
     31 C         141.5517  143.2786  165.3921 C.ar    1  UNL1        0.0990
     32 N         141.1423  144.1122  164.2142 N.ar    1  UNL1       -0.2400
     33 C         142.1450  144.4537  163.1523 C.ar    1  UNL1        0.1281
     34 C         143.5573  143.9616  163.2683 C.ar    1  UNL1        0.1566
     35 F         144.5601  144.3032  162.2063 F       1  UNL1       -0.2028
     36 C         143.9668  143.1280  164.4462 C.ar    1  UNL1        0.0261
     37 C         142.9639  142.7865  165.5081 C.ar    1  UNL1        0.1002
     38 N         143.3733  141.9529  166.6860 N.ar    1  UNL1       -0.2104
     39 C         141.7909  140.4787  170.0131 C.3     1  UNL1        0.2542
     40 O         142.7800  140.7778  168.9259 O.3     1  UNL1       -0.4561
@<TRIPOS>BOND
     1    39    40    1
     2    40    28    1
     3    28    29   ar
     4    29    30   ar
     5    30    31   ar
     6    31    32   ar
     7    32    33   ar
     8    33    34   ar
     9    34    35    1
    10    34    36   ar
    11    36    27    1
    12    27    26    1
    13    26     1    1
    14     1     2    1
    15     2     3    1
    16     3     4    1
    17     4     9    1
    18     9    11    1
    19    11    12    1
    20    12    13   ar
    21    13    14   ar
    22    14    15   ar
    23    15    16   ar
    24    16    17    1
    25    16    18   ar
    26    18    19    1
    27    15    20    1
    28    20    21    1
    29    21    22    1
    30    22    23    2
    31    22    24   am
    32     4     5    1
    33     5     6    1
    34     4     7    1
    35     7     8    1
    36    36    37   ar
    37    37    38   ar
    38    38    28   ar
    39    37    31   ar
    40     6     1    1
    41     8     1    1
    42    18    12   ar
    43    24    14    1
    44     9    10    1
    45    24    25    1
@<TRIPOS>MOLECULE
*****
 40 45 0 0 0
SMALL
GASTEIGER

@<TRIPOS>ATOM
      1 C         141.4891  137.9251  164.4151 C.3     1  UNL1        0.0932
      2 C         142.3021  138.4027  165.5817 C.3     1  UNL1        0.0286
      3 C         143.6372  139.0465  165.3519 C.3     1  UNL1        0.0193
      4 C         144.1594  139.2128  163.9555 C.3     1  UNL1        0.0700
      5 C         143.3464  138.7352  162.7890 C.3     1  UNL1        0.0193
      6 C         142.0112  138.0913  163.0188 C.3     1  UNL1        0.0286
      7 C         143.4222  138.8540  164.0317 C.3     1  UNL1        0.1562
      8 O         142.2150  138.2718  164.2394 O.3     1  UNL1       -0.3572
      9 N         145.4945  139.8566  163.7258 N.3     1  UNL1       -0.2926
     10 H         145.7885  139.5970  162.7842 H       1  UNL1        0.1236
     11 C         145.6364  141.3464  163.8283 C.3     1  UNL1        0.1148
     12 C         144.6961  142.2427  163.0783 C.ar    1  UNL1        0.0723
     13 N         144.4896  142.0487  161.6053 N.ar    1  UNL1       -0.2308
     14 C         143.5493  142.9450  160.8553 C.ar    1  UNL1        0.1679
     15 C         142.8155  144.0353  161.5783 C.ar    1  UNL1        0.1664
     16 C         143.0219  144.2293  163.0513 C.ar    1  UNL1        0.0122
     17 C         142.2881  145.3196  163.7743 C.3     1  UNL1        0.0340
     18 C         143.9622  143.3330  163.8013 C.ar    1  UNL1       -0.0079
     19 C         144.1687  143.5270  165.2743 C.3     1  UNL1        0.0321
     20 O         141.8751  144.9316  160.8283 O.3     1  UNL1       -0.4631
     21 C         141.6686  144.7376  159.3553 C.3     1  UNL1        0.2898
     22 C         142.4025  143.6472  158.6323 C.2     1  UNL1        0.2718
     23 O         142.1960  143.4532  157.1593 O.2     1  UNL1       -0.2707
     24 N         143.3428  142.7510  159.3823 N.am    1  UNL1       -0.2639
     25 H         143.8244  142.0354  158.9078 H       1  UNL1        0.1565
     26 C         140.1540  137.2812  164.6449 C.3     1  UNL1        0.0320
     27 C         138.9533  138.1298  164.9425 C.3     1  UNL1        0.0327
     28 C         140.1745  142.0695  166.7417 C.ar    1  UNL1        0.2250
     29 C         139.9492  143.3429  165.9819 C.ar    1  UNL1        0.0593
     30 C         139.3169  143.3032  164.6223 C.ar    1  UNL1        0.0254
     31 C         138.9098  141.9900  164.0225 C.ar    1  UNL1        0.0990
     32 N         138.2774  141.9503  162.6629 N.ar    1  UNL1       -0.2400
     33 C         137.8704  140.6371  162.0632 C.ar    1  UNL1        0.1281
     34 C         138.0956  139.3635  162.8230 C.ar    1  UNL1        0.1566
     35 F         137.6886  138.0503  162.2233 F       1  UNL1       -0.2028
     36 C         138.7280  139.4033  164.1826 C.ar    1  UNL1        0.0261
     37 C         139.1351  140.7166  164.7824 C.ar    1  UNL1        0.1002
     38 N         139.7675  140.7563  166.1420 N.ar    1  UNL1       -0.2104
     39 C         140.4507  143.2043  169.0625 C.3     1  UNL1        0.2542
     40 O         140.8069  142.1092  168.1013 O.3     1  UNL1       -0.4561
@<TRIPOS>BOND
     1    39    40    1
     2    40    28    1
     3    28    29   ar
     4    29    30   ar
     5    30    31   ar
     6    31    32   ar
     7    32    33   ar
     8    33    34   ar
     9    34    35    1
    10    34    36   ar
    11    36    27    1
    12    27    26    1
    13    26     1    1
    14     1     2    1
    15     2     3    1
    16     3     4    1
    17     4     9    1
    18     9    11    1
    19    11    12    1
    20    12    13   ar
    21    13    14   ar
    22    14    15   ar
    23    15    16   ar
    24    16    17    1
    25    16    18   ar
    26    18    19    1
    27    15    20    1
    28    20    21    1
    29    21    22    1
    30    22    23    2
    31    22    24   am
    32     4     5    1
    33     5     6    1
    34     4     7    1
    35     7     8    1
    36    36    37   ar
    37    37    38   ar
    38    38    28   ar
    39    37    31   ar
    40     6     1    1
    41     8     1    1
    42    18    12   ar
    43    24    14    1
    44     9    10    1
    45    24    25    1
@<TRIPOS>MOLECULE
*****
 40 45 0 0 0
SMALL
GASTEIGER

@<TRIPOS>ATOM
      1 C         137.8206  142.6205  163.6334 C.3     1  UNL1        0.0932
      2 C         137.7937  142.2467  162.1810 C.3     1  UNL1        0.0286
      3 C         137.9179  140.8083  161.7743 C.3     1  UNL1        0.0193
      4 C         138.0690  139.7435  162.8201 C.3     1  UNL1        0.0700
      5 C         138.0959  140.1173  164.2725 C.3     1  UNL1        0.0193
      6 C         137.9717  141.5558  164.6792 C.3     1  UNL1        0.0286
      7 C         138.0044  140.5182  163.0914 C.3     1  UNL1        0.1562
      8 O         137.8921  141.8189  163.4592 O.3     1  UNL1       -0.3572
      9 N         138.1932  138.3051  162.4134 N.3     1  UNL1       -0.2926
     10 H         137.5201  138.1523  161.6624 H       1  UNL1        0.1236
     11 C         139.5098  137.7734  161.9296 C.3     1  UNL1        0.1148
     12 C         140.7841  138.4671  162.3101 C.ar    1  UNL1        0.0723
     13 N         141.4059  139.4603  161.3737 N.ar    1  UNL1       -0.2308
     14 C         142.6803  140.1540  161.7543 C.ar    1  UNL1        0.1679
     15 C         143.3330  139.8543  163.0711 C.ar    1  UNL1        0.1664
     16 C         142.7113  138.8610  164.0075 C.ar    1  UNL1        0.0122
     17 C         143.3640  138.5613  165.3244 C.3     1  UNL1        0.0340
     18 C         141.4369  138.1674  163.6270 C.ar    1  UNL1       -0.0079
     19 C         140.8152  137.1741  164.5634 C.3     1  UNL1        0.0321
     20 O         144.6074  140.5479  163.4517 O.3     1  UNL1       -0.4631
     21 C         145.2292  141.5412  162.5153 C.3     1  UNL1        0.2898
     22 C         144.5764  141.8409  161.1983 C.2     1  UNL1        0.2718
     23 O         145.1982  142.8342  160.2619 O.2     1  UNL1       -0.2707
     24 N         143.3021  141.1473  160.8179 N.am    1  UNL1       -0.2639
     25 H         142.8737  141.3439  159.9535 H       1  UNL1        0.1565
     26 C         137.6964  144.0589  164.0401 C.3     1  UNL1        0.0320
     27 C         138.7979  144.7162  164.8178 C.3     1  UNL1        0.0327
     28 C         141.2773  142.0409  167.4532 C.ar    1  UNL1        0.2250
     29 C         142.7097  141.7640  167.1050 C.ar    1  UNL1        0.0593
     30 C         143.3158  142.3789  165.8783 C.ar    1  UNL1        0.0254
     31 C         142.4893  143.2707  164.9999 C.ar    1  UNL1        0.0990
     32 N         143.0954  143.8856  163.7733 N.ar    1  UNL1       -0.2400
     33 C         142.2690  144.7773  162.8949 C.ar    1  UNL1        0.1281
     34 C         140.8364  145.0543  163.2430 C.ar    1  UNL1        0.1566
     35 F         140.0100  145.9460  162.3646 F       1  UNL1       -0.2028
     36 C         140.2303  144.4394  164.4697 C.ar    1  UNL1        0.0261
     37 C         141.0569  143.5475  165.3481 C.ar    1  UNL1        0.1002
     38 N         140.4508  142.9326  166.5747 N.ar    1  UNL1       -0.2104
     39 C         139.6271  140.3575  168.5454 C.3     1  UNL1        0.2542
     40 O         140.6712  141.4260  168.6798 O.3     1  UNL1       -0.4561
@<TRIPOS>BOND
     1    39    40    1
     2    40    28    1
     3    28    29   ar
     4    29    30   ar
     5    30    31   ar
     6    31    32   ar
     7    32    33   ar
     8    33    34   ar
     9    34    35    1
    10    34    36   ar
    11    36    27    1
    12    27    26    1
    13    26     1    1
    14     1     2    1
    15     2     3    1
    16     3     4    1
    17     4     9    1
    18     9    11    1
    19    11    12    1
    20    12    13   ar
    21    13    14   ar
    22    14    15   ar
    23    15    16   ar
    24    16    17    1
    25    16    18   ar
    26    18    19    1
    27    15    20    1
    28    20    21    1
    29    21    22    1
    30    22    23    2
    31    22    24   am
    32     4     5    1
    33     5     6    1
    34     4     7    1
    35     7     8    1
    36    36    37   ar
    37    37    38   ar
    38    38    28   ar
    39    37    31   ar
    40     6     1    1
    41     8     1    1
    42    18    12   ar
    43    24    14    1
    44     9    10    1
    45    24    25    1
@<TRIPOS>MOLECULE
*****
 40 45 0 0 0
SMALL
GASTEIGER

@<TRIPOS>ATOM
      1 C         143.7255  142.0856  163.7703 C.3     1  UNL1        0.0932
      2 C         143.7735  142.6951  162.4006 C.3     1  UNL1        0.0286
      3 C         143.0206  143.9609  162.1161 C.3     1  UNL1        0.0193
      4 C         142.2197  144.6172  163.2014 C.3     1  UNL1        0.0700
      5 C         142.1717  144.0076  164.5712 C.3     1  UNL1        0.0193
      6 C         142.9247  142.7418  164.8556 C.3     1  UNL1        0.0286
      7 C         142.6157  143.9246  163.4049 C.3     1  UNL1        0.1562
      8 O         143.2965  142.7800  163.6622 O.3     1  UNL1       -0.3572
      9 N         141.4668  145.8829  162.9170 N.3     1  UNL1       -0.2926
     10 H         141.9930  146.3841  162.2013 H       1  UNL1        0.1236
     11 C         140.0447  145.8196  162.4441 C.3     1  UNL1        0.1148
     12 C         139.3799  144.4902  162.2424 C.ar    1  UNL1        0.0723
     13 N         139.3968  143.8405  160.8905 N.ar    1  UNL1       -0.2308
     14 C         138.7320  142.5111  160.6888 C.ar    1  UNL1        0.1679
     15 C         138.0503  141.8313  161.8391 C.ar    1  UNL1        0.1664
     16 C         138.0334  142.4809  163.1910 C.ar    1  UNL1        0.0122
     17 C         137.3516  141.8011  164.3413 C.3     1  UNL1        0.0340
     18 C         138.6981  143.8103  163.3927 C.ar    1  UNL1       -0.0079
     19 C         138.6812  144.4599  164.7446 C.3     1  UNL1        0.0321
     20 O         137.3854  140.5018  161.6375 O.3     1  UNL1       -0.4631
     21 C         137.4023  139.8522  160.2856 C.3     1  UNL1        0.2898
     22 C         138.0841  140.5320  159.1353 C.2     1  UNL1        0.2718
     23 O         138.1010  139.8824  157.7833 O.2     1  UNL1       -0.2707
     24 N         138.7489  141.8614  159.3369 N.am    1  UNL1       -0.2639
     25 H         139.1963  142.3076  158.5820 H       1  UNL1        0.1565
     26 C         144.4784  140.8199  164.0547 C.3     1  UNL1        0.0320
     27 C         143.7549  139.6220  164.5949 C.3     1  UNL1        0.0327
     28 C         139.5775  139.2057  166.2153 C.ar    1  UNL1        0.2250
     29 C         138.5171  138.5360  165.3925 C.ar    1  UNL1        0.0593
     30 C         138.8493  138.0050  164.0295 C.ar    1  UNL1        0.0254
     31 C         140.2417  138.1437  163.4893 C.ar    1  UNL1        0.0990
     32 N         140.5738  137.6127  162.1264 N.ar    1  UNL1       -0.2400
     33 C         141.9662  137.7515  161.5862 C.ar    1  UNL1        0.1281
     34 C         143.0267  138.4213  162.4090 C.ar    1  UNL1        0.1566
     35 F         144.4191  138.5600  161.8689 F       1  UNL1       -0.2028
     36 C         142.6945  138.9523  163.7720 C.ar    1  UNL1        0.0261
     37 C         141.3020  138.8135  164.3122 C.ar    1  UNL1        0.1002
     38 N         140.9699  139.3445  165.6752 N.ar    1  UNL1       -0.2104
     39 C         140.3332  140.2778  168.4580 C.3     1  UNL1        0.2542
     40 O         139.2454  139.7367  167.5783 O.3     1  UNL1       -0.4561
@<TRIPOS>BOND
     1    39    40    1
     2    40    28    1
     3    28    29   ar
     4    29    30   ar
     5    30    31   ar
     6    31    32   ar
     7    32    33   ar
     8    33    34   ar
     9    34    35    1
    10    34    36   ar
    11    36    27    1
    12    27    26    1
    13    26     1    1
    14     1     2    1
    15     2     3    1
    16     3     4    1
    17     4     9    1
    18     9    11    1
    19    11    12    1
    20    12    13   ar
    21    13    14   ar
    22    14    15   ar
    23    15    16   ar
    24    16    17    1
    25    16    18   ar
    26    18    19    1
    27    15    20    1
    28    20    21    1
    29    21    22    1
    30    22    23    2
    31    22    24   am
    32     4     5    1
    33     5     6    1
    34     4     7    1
    35     7     8    1
    36    36    37   ar
    37    37    38   ar
    38    38    28   ar
    39    37    31   ar
    40     6     1    1
    41     8     1    1
    42    18    12   ar
    43    24    14    1
    44     9    10    1
    45    24    25    1
@<TRIPOS>MOLECULE
*****
 40 45 0 0 0
SMALL
GASTEIGER

@<TRIPOS>ATOM
      1 C         139.9455  138.2311  164.2455 C.3     1  UNL1        0.0932
      2 C         139.6200  138.5292  162.8120 C.3     1  UNL1        0.0286
      3 C         138.6173  139.5930  162.4762 C.3     1  UNL1        0.0193
      4 C         137.9400  140.3587  163.5740 C.3     1  UNL1        0.0700
      5 C         138.2655  140.0605  165.0075 C.3     1  UNL1        0.0193
      6 C         139.2683  138.9967  165.3433 C.3     1  UNL1        0.0286
      7 C         138.4825  139.7849  163.8071 C.3     1  UNL1        0.1562
      8 O         139.3893  138.8230  164.1107 O.3     1  UNL1       -0.3572
      9 N         136.9372  141.4225  163.2382 N.3     1  UNL1       -0.2926
     10 H         136.1884  141.3491  163.9268 H       1  UNL1        0.1236
     11 C         137.3547  142.8628  163.2042 C.3     1  UNL1        0.1148
     12 C         138.5596  143.2760  162.4121 C.ar    1  UNL1        0.0723
     13 N         138.5120  143.2635  160.9129 N.ar    1  UNL1       -0.2308
     14 C         139.7170  143.6767  160.1208 C.ar    1  UNL1        0.1679
     15 C         140.9695  144.1023  160.8279 C.ar    1  UNL1        0.1664
     16 C         141.0171  144.1147  162.3271 C.ar    1  UNL1        0.0122
     17 C         142.2697  144.5404  163.0342 C.3     1  UNL1        0.0340
     18 C         139.8122  143.7016  163.1192 C.ar    1  UNL1       -0.0079
     19 C         139.8598  143.7140  164.6184 C.3     1  UNL1        0.0321
     20 O         142.1745  144.5155  160.0358 O.3     1  UNL1       -0.4631
     21 C         142.1269  144.5030  158.5366 C.3     1  UNL1        0.2898
     22 C         140.8743  144.0774  157.8295 C.2     1  UNL1        0.2718
     23 O         140.8267  144.0649  156.3303 O.2     1  UNL1       -0.2707
     24 N         139.6694  143.6642  158.6216 N.am    1  UNL1       -0.2639
     25 H         138.8473  143.3849  158.1575 H       1  UNL1        0.1565
     26 C         140.9483  137.1673  164.5813 C.3     1  UNL1        0.0320
     27 C         142.3296  137.5511  165.0226 C.3     1  UNL1        0.0327
     28 C         142.4760  141.0712  167.8221 C.ar    1  UNL1        0.2250
     29 C         143.0759  142.3680  167.3657 C.ar    1  UNL1        0.0593
     30 C         143.6270  142.4914  165.9761 C.ar    1  UNL1        0.0254
     31 C         143.5782  141.3181  165.0429 C.ar    1  UNL1        0.0990
     32 N         144.1294  141.4416  163.6533 N.ar    1  UNL1       -0.2400
     33 C         144.0806  140.2683  162.7201 C.ar    1  UNL1        0.1281
     34 C         143.4807  138.9714  163.1765 C.ar    1  UNL1        0.1566
     35 F         143.4319  137.7980  162.2433 F       1  UNL1       -0.2028
     36 C         142.9295  138.8479  164.5661 C.ar    1  UNL1        0.0261
     37 C         142.9783  140.0213  165.4993 C.ar    1  UNL1        0.1002
     38 N         142.4272  139.8978  166.8889 N.ar    1  UNL1       -0.2104
     39 C         141.6819  139.5914  169.8044 C.3     1  UNL1        0.2542
     40 O         141.9248  140.9477  169.2117 O.3     1  UNL1       -0.4561
@<TRIPOS>BOND
     1    39    40    1
     2    40    28    1
     3    28    29   ar
     4    29    30   ar
     5    30    31   ar
     6    31    32   ar
     7    32    33   ar
     8    33    34   ar
     9    34    35    1
    10    34    36   ar
    11    36    27    1
    12    27    26    1
    13    26     1    1
    14     1     2    1
    15     2     3    1
    16     3     4    1
    17     4     9    1
    18     9    11    1
    19    11    12    1
    20    12    13   ar
    21    13    14   ar
    22    14    15   ar
    23    15    16   ar
    24    16    17    1
    25    16    18   ar
    26    18    19    1
    27    15    20    1
    28    20    21    1
    29    21    22    1
    30    22    23    2
    31    22    24   am
    32     4     5    1
    33     5     6    1
    34     4     7    1
    35     7     8    1
    36    36    37   ar
    37    37    38   ar
    38    38    28   ar
    39    37    31   ar
    40     6     1    1
    41     8     1    1
    42    18    12   ar
    43    24    14    1
    44     9    10    1
    45    24    25    1
@<TRIPOS>MOLECULE
*****
 40 45 0 0 0
SMALL
GASTEIGER

@<TRIPOS>ATOM
      1 C         139.3955  137.9874  164.5363 C.3     1  UNL1        0.0932
      2 C         140.8116  137.6111  164.8572 C.3     1  UNL1        0.0286
      3 C         141.7988  137.3920  163.7493 C.3     1  UNL1        0.0193
      4 C         141.3699  137.5491  162.3205 C.3     1  UNL1        0.0700
      5 C         139.9537  137.9253  161.9997 C.3     1  UNL1        0.0193
      6 C         138.9665  138.1445  163.1076 C.3     1  UNL1        0.0286
      7 C         140.7932  137.6795  162.8936 C.3     1  UNL1        0.1562
      8 O         139.9005  137.8777  163.8953 O.3     1  UNL1       -0.3572
      9 N         142.3571  137.3299  161.2127 N.3     1  UNL1       -0.2926
     10 H         141.8752  137.5502  160.3411 H       1  UNL1        0.1236
     11 C         143.6491  138.0919  161.1978 C.3     1  UNL1        0.1148
     12 C         143.6439  139.5807  161.3807 C.ar    1  UNL1        0.0723
     13 N         143.9986  140.1740  162.7119 N.ar    1  UNL1       -0.2308
     14 C         143.9934  141.6629  162.8947 C.ar    1  UNL1        0.1679
     15 C         143.6337  142.5583  161.7464 C.ar    1  UNL1        0.1664
     16 C         143.2790  141.9649  160.4152 C.ar    1  UNL1        0.0122
     17 C         142.9192  142.8605  159.2668 C.3     1  UNL1        0.0340
     18 C         143.2841  140.4762  160.2323 C.ar    1  UNL1       -0.0079
     19 C         142.9295  139.8828  158.9011 C.3     1  UNL1        0.0321
     20 O         143.6285  144.0471  161.9293 O.3     1  UNL1       -0.4631
     21 C         143.9832  144.6405  163.2605 C.3     1  UNL1        0.2898
     22 C         144.3430  143.7450  164.4089 C.2     1  UNL1        0.2718
     23 O         144.6976  144.3383  165.7401 O.2     1  UNL1       -0.2707
     24 N         144.3481  142.2562  164.2260 N.am    1  UNL1       -0.2639
     25 H         144.5842  141.6685  164.9797 H       1  UNL1        0.1565
     26 C         138.4083  138.2065  165.6442 C.3     1  UNL1        0.0320
     27 C         138.2027  139.5828  166.2042 C.3     1  UNL1        0.0327
     28 C         141.7101  140.1604  168.9636 C.ar    1  UNL1        0.2250
     29 C         142.7130  141.2407  168.6858 C.ar    1  UNL1        0.0593
     30 C         142.5467  142.1285  167.4882 C.ar    1  UNL1        0.0254
     31 C         141.3776  141.9360  166.5684 C.ar    1  UNL1        0.0990
     32 N         141.2113  142.8237  165.3709 N.ar    1  UNL1       -0.2400
     33 C         140.0422  142.6312  164.4511 C.ar    1  UNL1        0.1281
     34 C         139.0393  141.5509  164.7288 C.ar    1  UNL1        0.1566
     35 F         137.8702  141.3584  163.8090 F       1  UNL1       -0.2028
     36 C         139.2055  140.6631  165.9264 C.ar    1  UNL1        0.0261
     37 C         140.3747  140.8557  166.8462 C.ar    1  UNL1        0.1002
     38 N         140.5410  139.9679  168.0438 N.ar    1  UNL1       -0.2104
     39 C         142.9213  138.1965  170.1578 C.3     1  UNL1        0.2542
     40 O         141.8764  139.2726  170.1612 O.3     1  UNL1       -0.4561
@<TRIPOS>BOND
     1    39    40    1
     2    40    28    1
     3    28    29   ar
     4    29    30   ar
     5    30    31   ar
     6    31    32   ar
     7    32    33   ar
     8    33    34   ar
     9    34    35    1
    10    34    36   ar
    11    36    27    1
    12    27    26    1
    13    26     1    1
    14     1     2    1
    15     2     3    1
    16     3     4    1
    17     4     9    1
    18     9    11    1
    19    11    12    1
    20    12    13   ar
    21    13    14   ar
    22    14    15   ar
    23    15    16   ar
    24    16    17    1
    25    16    18   ar
    26    18    19    1
    27    15    20    1
    28    20    21    1
    29    21    22    1
    30    22    23    2
    31    22    24   am
    32     4     5    1
    33     5     6    1
    34     4     7    1
    35     7     8    1
    36    36    37   ar
    37    37    38   ar
    38    38    28   ar
    39    37    31   ar
    40     6     1    1
    41     8     1    1
    42    18    12   ar
    43    24    14    1
    44     9    10    1
    45    24    25    1
@<TRIPOS>MOLECULE
*****
 40 45 0 0 0
SMALL
GASTEIGER

@<TRIPOS>ATOM
      1 C         143.4637  139.0653  161.6838 C.3     1  UNL1        0.0932
      2 C         143.9327  138.7875  163.0812 C.3     1  UNL1        0.0286
      3 C         144.7202  139.8230  163.8278 C.3     1  UNL1        0.0193
      4 C         145.0389  141.1363  163.1770 C.3     1  UNL1        0.0700
      5 C         144.5700  141.4141  161.7795 C.3     1  UNL1        0.0193
      6 C         143.7824  140.3786  161.0329 C.3     1  UNL1        0.0286
      7 C         144.6045  140.5999  162.7281 C.3     1  UNL1        0.1562
      8 O         143.8923  139.6636  162.0530 O.3     1  UNL1       -0.3572
      9 N         145.8265  142.1718  163.9235 N.3     1  UNL1       -0.2926
     10 H         146.3050  142.7390  163.2237 H       1  UNL1        0.1236
     11 C         145.1270  143.1238  164.8479 C.3     1  UNL1        0.1148
     12 C         143.6598  143.3881  164.6825 C.ar    1  UNL1        0.0723
     13 N         143.1787  144.2836  163.5795 N.ar    1  UNL1       -0.2308
     14 C         141.7114  144.5478  163.4141 C.ar    1  UNL1        0.1679
     15 C         140.7253  143.9167  164.3517 C.ar    1  UNL1        0.1664
     16 C         141.2064  143.0212  165.4548 C.ar    1  UNL1        0.0122
     17 C         140.2202  142.3900  166.3924 C.3     1  UNL1        0.0340
     18 C         142.6736  142.7569  165.6202 C.ar    1  UNL1       -0.0079
     19 C         143.1547  141.8615  166.7232 C.3     1  UNL1        0.0321
     20 O         139.2580  144.1809  164.1864 O.3     1  UNL1       -0.4631
     21 C         138.7769  145.0764  163.0833 C.3     1  UNL1        0.2898
     22 C         139.7630  145.7076  162.1457 C.2     1  UNL1        0.2718
     23 O         139.2819  146.6031  161.0426 O.2     1  UNL1       -0.2707
     24 N         141.2303  145.4433  162.3111 N.am    1  UNL1       -0.2639
     25 H         141.8775  145.8576  161.6957 H       1  UNL1        0.1565
     26 C         142.6762  138.0298  160.9372 C.3     1  UNL1        0.0320
     27 C         141.2031  137.8874  161.1818 C.3     1  UNL1        0.0327
     28 C         138.8107  139.3424  164.7045 C.ar    1  UNL1        0.2250
     29 C         137.9078  140.5312  164.5583 C.ar    1  UNL1        0.0593
     30 C         137.8023  141.2350  163.2379 C.ar    1  UNL1        0.0254
     31 C         138.5997  140.7500  162.0637 C.ar    1  UNL1        0.0990
     32 N         138.4943  141.4539  160.7433 N.ar    1  UNL1       -0.2400
     33 C         139.2917  140.9689  159.5690 C.ar    1  UNL1        0.1281
     34 C         140.1947  139.7800  159.7152 C.ar    1  UNL1        0.1566
     35 F         140.9921  139.2951  158.5410 F       1  UNL1       -0.2028
     36 C         140.3001  139.0762  161.0356 C.ar    1  UNL1        0.0261
     37 C         139.5026  139.5612  162.2099 C.ar    1  UNL1        0.1002
     38 N         139.6081  138.8574  163.5303 N.ar    1  UNL1       -0.2104
     39 C         137.7039  138.4928  166.8961 C.3     1  UNL1        0.2542
     40 O         138.9162  138.6385  166.0249 O.3     1  UNL1       -0.4561
@<TRIPOS>BOND
     1    39    40    1
     2    40    28    1
     3    28    29   ar
     4    29    30   ar
     5    30    31   ar
     6    31    32   ar
     7    32    33   ar
     8    33    34   ar
     9    34    35    1
    10    34    36   ar
    11    36    27    1
    12    27    26    1
    13    26     1    1
    14     1     2    1
    15     2     3    1
    16     3     4    1
    17     4     9    1
    18     9    11    1
    19    11    12    1
    20    12    13   ar
    21    13    14   ar
    22    14    15   ar
    23    15    16   ar
    24    16    17    1
    25    16    18   ar
    26    18    19    1
    27    15    20    1
    28    20    21    1
    29    21    22    1
    30    22    23    2
    31    22    24   am
    32     4     5    1
    33     5     6    1
    34     4     7    1
    35     7     8    1
    36    36    37   ar
    37    37    38   ar
    38    38    28   ar
    39    37    31   ar
    40     6     1    1
    41     8     1    1
    42    18    12   ar
    43    24    14    1
    44     9    10    1
    45    24    25    1
@<TRIPOS>MOLECULE
*****
 40 45 0 0 0
SMALL
GASTEIGER

@<TRIPOS>ATOM
      1 C         139.0761  143.8919  163.1975 C.3     1  UNL1        0.0932
      2 C         139.9788  144.3211  164.3159 C.3     1  UNL1        0.0286
      3 C         141.3885  144.7413  164.0227 C.3     1  UNL1        0.0193
      4 C         141.8956  144.7323  162.6110 C.3     1  UNL1        0.0700
      5 C         140.9929  144.3030  161.4926 C.3     1  UNL1        0.0193
      6 C         139.5831  143.8828  161.7858 C.3     1  UNL1        0.0286
      7 C         141.1156  144.4935  162.7225 C.3     1  UNL1        0.1562
      8 O         139.8408  144.1136  162.9876 O.3     1  UNL1       -0.3572
      9 N         143.3054  145.1524  162.3177 N.3     1  UNL1       -0.2926
     10 H         143.4756  146.0049  162.8513 H       1  UNL1        0.1236
     11 C         144.4429  144.2210  162.6153 C.3     1  UNL1        0.1148
     12 C         144.2504  142.7386  162.4919 C.ar    1  UNL1        0.0723
     13 N         144.0067  142.1235  161.1457 N.ar    1  UNL1       -0.2308
     14 C         143.8142  140.6410  161.0222 C.ar    1  UNL1        0.1679
     15 C         143.8654  139.7737  162.2449 C.ar    1  UNL1        0.1664
     16 C         144.1091  140.3888  163.5911 C.ar    1  UNL1        0.0122
     17 C         144.1604  139.5213  164.8139 C.3     1  UNL1        0.0340
     18 C         144.3016  141.8712  163.7146 C.ar    1  UNL1       -0.0079
     19 C         144.5454  142.4863  165.0608 C.3     1  UNL1        0.0321
     20 O         143.6729  138.2911  162.1215 O.3     1  UNL1       -0.4631
     21 C         143.4292  137.6760  160.7753 C.3     1  UNL1        0.2898
     22 C         143.3779  138.5435  159.5525 C.2     1  UNL1        0.2718
     23 O         143.1342  137.9284  158.2063 O.2     1  UNL1       -0.2707
     24 N         143.5704  140.0259  159.6760 N.am    1  UNL1       -0.2639
     25 H         143.5368  140.5952  158.8735 H       1  UNL1        0.1565
     26 C         137.6663  143.4717  163.4907 C.3     1  UNL1        0.0320
     27 C         137.3539  142.0292  163.7584 C.3     1  UNL1        0.0327
     28 C         138.1176  139.8515  159.8952 C.ar    1  UNL1        0.2250
     29 C         139.2053  138.8216  159.8172 C.ar    1  UNL1        0.0593
     30 C         140.0384  138.5175  161.0269 C.ar    1  UNL1        0.0254
     31 C         139.7839  139.2434  162.3146 C.ar    1  UNL1        0.0990
     32 N         140.6170  138.9393  163.5243 N.ar    1  UNL1       -0.2400
     33 C         140.3625  139.6652  164.8120 C.ar    1  UNL1        0.1281
     34 C         139.2747  140.6952  164.8901 C.ar    1  UNL1        0.1566
     35 F         139.0202  141.4210  166.1778 F       1  UNL1       -0.2028
     36 C         138.4416  140.9993  163.6804 C.ar    1  UNL1        0.0261
     37 C         138.6962  140.2733  162.3926 C.ar    1  UNL1        0.1002
     38 N         137.8631  140.5774  161.1829 N.ar    1  UNL1       -0.2104
     39 C         137.8845  140.8992  157.5292 C.3     1  UNL1        0.2542
     40 O         137.2845  140.1556  158.6854 O.3     1  UNL1       -0.4561
@<TRIPOS>BOND
     1    39    40    1
     2    40    28    1
     3    28    29   ar
     4    29    30   ar
     5    30    31   ar
     6    31    32   ar
     7    32    33   ar
     8    33    34   ar
     9    34    35    1
    10    34    36   ar
    11    36    27    1
    12    27    26    1
    13    26     1    1
    14     1     2    1
    15     2     3    1
    16     3     4    1
    17     4     9    1
    18     9    11    1
    19    11    12    1
    20    12    13   ar
    21    13    14   ar
    22    14    15   ar
    23    15    16   ar
    24    16    17    1
    25    16    18   ar
    26    18    19    1
    27    15    20    1
    28    20    21    1
    29    21    22    1
    30    22    23    2
    31    22    24   am
    32     4     5    1
    33     5     6    1
    34     4     7    1
    35     7     8    1
    36    36    37   ar
    37    37    38   ar
    38    38    28   ar
    39    37    31   ar
    40     6     1    1
    41     8     1    1
    42    18    12   ar
    43    24    14    1
    44     9    10    1
    45    24    25    1
