@<TRIPOS>MOLECULE
*****
 22 25 0 0 0
SMALL
GASTEIGER

@<TRIPOS>ATOM
      1 BR        143.5154  142.1650  169.6032 Br      1  UNL1       -0.0533
      2 C         142.5097  141.6382  168.6228 C.2     1  UNL1        0.0168
      3 C         142.3338  140.1586  168.4508 C.2     1  UNL1        0.0042
      4 C         141.3282  139.6318  167.4704 C.2     1  UNL1        0.0190
      5 C         140.4984  140.5846  166.6621 C.2     1  UNL1        0.0771
      6 N         139.4362  140.3614  165.6267 N.2     1  UNL1       -0.2487
      7 C         138.9556  141.7031  165.1589 C.2     1  UNL1        0.0724
      8 C         139.7208  142.7556  165.9051 C.2     1  UNL1       -0.0092
      9 C         140.6743  142.0643  166.8341 C.2     1  UNL1       -0.0024
     10 C         141.6799  142.5911  167.8145 C.3     1  UNL1        0.0607
     11 C         139.4504  144.2073  165.6422 C.3     1  UNL1        0.0274
     12 C         138.4149  144.6067  164.6331 C.3     1  UNL1        0.0068
     13 C         137.6498  143.5542  163.8870 C.3     1  UNL1        0.0260
     14 C         137.9201  142.1024  164.1498 C.3     1  UNL1        0.1095
     15 N         137.1549  141.0499  163.4036 N.pl3   1  UNL1       -0.3294
     16 H         136.2152  140.8681  163.6341 H       1  UNL1        0.1471
     17 C         137.8215  140.2743  162.3063 C.ar    1  UNL1        0.0449
     18 C         138.2254  138.8479  162.5345 C.ar    1  UNL1        0.0143
     19 C         138.8920  138.0723  161.4372 C.ar    1  UNL1        0.0013
     20 C         139.1548  138.7232  160.1116 C.ar    1  UNL1        0.0001
     21 C         138.7509  140.1497  159.8833 C.ar    1  UNL1        0.0013
     22 C         138.0842  140.9253  160.9807 C.ar    1  UNL1        0.0143
@<TRIPOS>BOND
     1     1     2    1
     2     2     3    2
     3     3     4    1
     4     4     5    2
     5     5     6    1
     6     6     7    2
     7     7     8    1
     8     8     9    2
     9     9    10    1
    10     8    11    1
    11    11    12    1
    12    12    13    1
    13    13    14    1
    14    14    15    1
    15    15    17    1
    16    17    18   ar
    17    18    19   ar
    18    19    20   ar
    19    20    21   ar
    20    21    22   ar
    21    10     2    1
    22    22    17   ar
    23     9     5    1
    24    14     7    1
    25    15    16    1
@<TRIPOS>MOLECULE
*****
 22 25 0 0 0
SMALL
GASTEIGER

@<TRIPOS>ATOM
      1 BR        141.4155  145.8444  157.3131 Br      1  UNL1       -0.0533
      2 C         140.6440  144.8564  158.1369 C.2     1  UNL1        0.0168
      3 C         140.1126  143.6047  157.5038 C.2     1  UNL1        0.0042
      4 C         139.3411  142.6168  158.3276 C.2     1  UNL1        0.0190
      5 C         139.1009  142.8805  159.7846 C.2     1  UNL1        0.0771
      6 N         138.3812  142.0961  160.8413 N.2     1  UNL1       -0.2487
      7 C         138.4678  142.8629  162.1275 C.2     1  UNL1        0.0724
      8 C         139.2410  144.1213  161.8658 C.2     1  UNL1       -0.0092
      9 C         139.6323  144.1322  160.4177 C.2     1  UNL1       -0.0024
     10 C         140.4038  145.1201  159.5939 C.3     1  UNL1        0.0607
     11 C         139.4888  145.0947  162.9797 C.3     1  UNL1        0.0274
     12 C         138.9634  144.8097  164.3555 C.3     1  UNL1        0.0068
     13 C         138.1902  143.5513  164.6172 C.3     1  UNL1        0.0260
     14 C         137.9424  142.5779  163.5032 C.3     1  UNL1        0.1095
     15 N         137.1691  141.3194  163.7650 N.pl3   1  UNL1       -0.3294
     16 H         136.1860  141.3262  163.7141 H       1  UNL1        0.1471
     17 C         137.8939  140.0507  164.1044 C.ar    1  UNL1        0.0449
     18 C         138.3176  139.1138  163.0123 C.ar    1  UNL1        0.0143
     19 C         139.0423  137.8452  163.3517 C.ar    1  UNL1        0.0013
     20 C         139.3433  137.5134  164.7832 C.ar    1  UNL1        0.0001
     21 C         138.9196  138.4503  165.8754 C.ar    1  UNL1        0.0013
     22 C         138.1948  139.7190  165.5360 C.ar    1  UNL1        0.0143
@<TRIPOS>BOND
     1     1     2    1
     2     2     3    2
     3     3     4    1
     4     4     5    2
     5     5     6    1
     6     6     7    2
     7     7     8    1
     8     8     9    2
     9     9    10    1
    10     8    11    1
    11    11    12    1
    12    12    13    1
    13    13    14    1
    14    14    15    1
    15    15    17    1
    16    17    18   ar
    17    18    19   ar
    18    19    20   ar
    19    20    21   ar
    20    21    22   ar
    21    10     2    1
    22    22    17   ar
    23     9     5    1
    24    14     7    1
    25    15    16    1
@<TRIPOS>MOLECULE
*****
 22 25 0 0 0
SMALL
GASTEIGER

@<TRIPOS>ATOM
      1 BR        140.0226  142.9978  170.2967 Br      1  UNL1       -0.0533
      2 C         140.6305  142.0919  169.2672 C.2     1  UNL1        0.0168
      3 C         140.2132  140.6530  169.1942 C.2     1  UNL1        0.0042
      4 C         140.8210  139.7471  168.1647 C.2     1  UNL1        0.0190
      5 C         141.8461  140.2801  167.2081 C.2     1  UNL1        0.0771
      6 N         142.6138  139.6308  166.0950 N.2     1  UNL1       -0.2487
      7 C         143.5055  140.6684  165.4800 C.2     1  UNL1        0.0724
      8 C         143.2890  141.9590  166.2131 C.2     1  UNL1       -0.0092
      9 C         142.2634  141.7190  167.2811 C.2     1  UNL1       -0.0024
     10 C         141.6555  142.6249  168.3106 C.3     1  UNL1        0.0607
     11 C         144.0536  143.1860  165.8134 C.3     1  UNL1        0.0274
     12 C         145.0348  143.1223  164.6806 C.3     1  UNL1        0.0068
     13 C         145.2514  141.8317  163.9476 C.3     1  UNL1        0.0260
     14 C         144.4867  140.6047  164.3473 C.3     1  UNL1        0.1095
     15 N         144.7033  139.3140  163.6142 N.pl3   1  UNL1       -0.3294
     16 H         145.4368  138.7137  163.8805 H       1  UNL1        0.1471
     17 C         143.8023  138.9379  162.4755 C.ar    1  UNL1        0.0449
     18 C         142.5543  138.1476  162.7359 C.ar    1  UNL1        0.0143
     19 C         141.6533  137.7715  161.5972 C.ar    1  UNL1        0.0013
     20 C         142.0003  138.1858  160.1979 C.ar    1  UNL1        0.0001
     21 C         143.2484  138.9762  159.9375 C.ar    1  UNL1        0.0013
     22 C         144.1494  139.3522  161.0762 C.ar    1  UNL1        0.0143
@<TRIPOS>BOND
     1     1     2    1
     2     2     3    2
     3     3     4    1
     4     4     5    2
     5     5     6    1
     6     6     7    2
     7     7     8    1
     8     8     9    2
     9     9    10    1
    10     8    11    1
    11    11    12    1
    12    12    13    1
    13    13    14    1
    14    14    15    1
    15    15    17    1
    16    17    18   ar
    17    18    19   ar
    18    19    20   ar
    19    20    21   ar
    20    21    22   ar
    21    10     2    1
    22    22    17   ar
    23     9     5    1
    24    14     7    1
    25    15    16    1
@<TRIPOS>MOLECULE
*****
 22 25 0 0 0
SMALL
GASTEIGER

@<TRIPOS>ATOM
      1 BR        142.4613  142.8897  170.0818 Br      1  UNL1       -0.0533
      2 C         142.0844  141.8806  169.0380 C.2     1  UNL1        0.0168
      3 C         140.8541  141.0411  169.2160 C.2     1  UNL1        0.0042
      4 C         140.4772  140.0320  168.1722 C.2     1  UNL1        0.0190
      5 C         141.3305  139.8623  166.9503 C.2     1  UNL1        0.0771
      6 N         141.2120  138.9557  165.7612 N.2     1  UNL1       -0.2487
      7 C         142.3690  139.2348  164.8483 C.2     1  UNL1        0.0724
      8 C         143.2026  140.3140  165.4731 C.2     1  UNL1       -0.0092
      9 C         142.5608  140.7018  166.7723 C.2     1  UNL1       -0.0024
     10 C         142.9377  141.7109  167.8161 C.3     1  UNL1        0.0607
     11 C         144.4383  140.8040  164.7784 C.3     1  UNL1        0.0274
     12 C         144.8405  140.2150  163.4589 C.3     1  UNL1        0.0068
     13 C         144.0069  139.1358  162.8340 C.3     1  UNL1        0.0260
     14 C         142.7711  138.6457  163.5287 C.3     1  UNL1        0.1095
     15 N         141.9374  137.5665  162.9038 N.pl3   1  UNL1       -0.3294
     16 H         142.2314  136.6281  162.9506 H       1  UNL1        0.1471
     17 C         140.6558  137.9171  162.2077 C.ar    1  UNL1        0.0449
     18 C         140.6837  138.4285  160.7978 C.ar    1  UNL1        0.0143
     19 C         139.4021  138.7790  160.1017 C.ar    1  UNL1        0.0013
     20 C         138.0926  138.6183  160.8155 C.ar    1  UNL1        0.0001
     21 C         138.0648  138.1069  162.2254 C.ar    1  UNL1        0.0013
     22 C         139.3464  137.7563  162.9215 C.ar    1  UNL1        0.0143
@<TRIPOS>BOND
     1     1     2    1
     2     2     3    2
     3     3     4    1
     4     4     5    2
     5     5     6    1
     6     6     7    2
     7     7     8    1
     8     8     9    2
     9     9    10    1
    10     8    11    1
    11    11    12    1
    12    12    13    1
    13    13    14    1
    14    14    15    1
    15    15    17    1
    16    17    18   ar
    17    18    19   ar
    18    19    20   ar
    19    20    21   ar
    20    21    22   ar
    21    10     2    1
    22    22    17   ar
    23     9     5    1
    24    14     7    1
    25    15    16    1
@<TRIPOS>MOLECULE
*****
 22 25 0 0 0
SMALL
GASTEIGER

@<TRIPOS>ATOM
      1 BR        142.2432  139.6632  169.8686 Br      1  UNL1       -0.0533
      2 C         141.5143  140.4528  168.8221 C.2     1  UNL1        0.0168
      3 C         141.3826  141.9404  168.9613 C.2     1  UNL1        0.0042
      4 C         140.6537  142.7301  167.9148 C.2     1  UNL1        0.0190
      5 C         140.0565  142.0320  166.7291 C.2     1  UNL1        0.0771
      6 N         139.2876  142.5420  165.5464 N.2     1  UNL1       -0.2487
      7 C         138.9441  141.3695  164.6762 C.2     1  UNL1        0.0724
      8 C         139.5007  140.1348  165.3210 C.2     1  UNL1       -0.0092
      9 C         140.1882  140.5444  166.5898 C.2     1  UNL1       -0.0024
     10 C         140.9171  139.7547  167.6363 C.3     1  UNL1        0.0607
     11 C         139.3096  138.7973  164.6697 C.3     1  UNL1        0.0274
     12 C         138.5620  138.6943  163.3734 C.3     1  UNL1        0.0068
     13 C         138.0054  139.9290  162.7285 C.3     1  UNL1        0.0260
     14 C         138.1965  141.2666  163.3799 C.3     1  UNL1        0.1095
     15 N         137.6399  142.5013  162.7350 N.pl3   1  UNL1       -0.3294
     16 H         136.6681  142.6588  162.7304 H       1  UNL1        0.1471
     17 C         138.5639  143.4958  162.0971 C.ar    1  UNL1        0.0449
     18 C         139.2805  143.1463  160.8265 C.ar    1  UNL1        0.0143
     19 C         140.2045  144.1409  160.1886 C.ar    1  UNL1        0.0013
     20 C         140.4120  145.4850  160.8212 C.ar    1  UNL1        0.0001
     21 C         139.6954  145.8345  162.0918 C.ar    1  UNL1        0.0013
     22 C         138.7714  144.8399  162.7298 C.ar    1  UNL1        0.0143
@<TRIPOS>BOND
     1     1     2    1
     2     2     3    2
     3     3     4    1
     4     4     5    2
     5     5     6    1
     6     6     7    2
     7     7     8    1
     8     8     9    2
     9     9    10    1
    10     8    11    1
    11    11    12    1
    12    12    13    1
    13    13    14    1
    14    14    15    1
    15    15    17    1
    16    17    18   ar
    17    18    19   ar
    18    19    20   ar
    19    20    21   ar
    20    21    22   ar
    21    10     2    1
    22    22    17   ar
    23     9     5    1
    24    14     7    1
    25    15    16    1
@<TRIPOS>MOLECULE
*****
 22 25 0 0 0
SMALL
GASTEIGER

@<TRIPOS>ATOM
      1 BR        140.3567  143.6565  170.3051 Br      1  UNL1       -0.0533
      2 C         140.9566  142.7203  169.2983 C.2     1  UNL1        0.0168
      3 C         142.4303  142.7608  169.0214 C.2     1  UNL1        0.0042
      4 C         143.0302  141.8246  168.0146 C.2     1  UNL1        0.0190
      5 C         142.1566  140.8478  167.2849 C.2     1  UNL1        0.0771
      6 N         142.4617  139.8099  166.2458 N.2     1  UNL1       -0.2487
      7 C         141.1766  139.1279  165.8806 C.2     1  UNL1        0.0724
      8 C         140.0772  139.7443  166.6939 C.2     1  UNL1       -0.0092
      9 C         140.6830  140.8073  167.5619 C.2     1  UNL1       -0.0024
     10 C         140.0830  141.7435  168.5686 C.3     1  UNL1        0.0607
     11 C         138.6668  139.2580  166.5392 C.3     1  UNL1        0.0274
     12 C         138.3556  138.1553  165.5711 C.3     1  UNL1        0.0068
     13 C         139.4549  137.5389  164.7577 C.3     1  UNL1        0.0260
     14 C         140.8654  138.0253  164.9125 C.3     1  UNL1        0.1095
     15 N         141.9648  137.4088  164.0990 N.pl3   1  UNL1       -0.3294
     16 H         142.4712  136.6436  164.4556 H       1  UNL1        0.1471
     17 C         142.2925  137.9584  162.7424 C.ar    1  UNL1        0.0449
     18 C         141.2562  137.9467  161.6580 C.ar    1  UNL1        0.0143
     19 C         141.5839  138.4963  160.3013 C.ar    1  UNL1        0.0013
     20 C         142.9480  139.0576  160.0291 C.ar    1  UNL1        0.0001
     21 C         143.9843  139.0694  161.1135 C.ar    1  UNL1        0.0013
     22 C         143.6566  138.5198  162.4701 C.ar    1  UNL1        0.0143
@<TRIPOS>BOND
     1     1     2    1
     2     2     3    2
     3     3     4    1
     4     4     5    2
     5     5     6    1
     6     6     7    2
     7     7     8    1
     8     8     9    2
     9     9    10    1
    10     8    11    1
    11    11    12    1
    12    12    13    1
    13    13    14    1
    14    14    15    1
    15    15    17    1
    16    17    18   ar
    17    18    19   ar
    18    19    20   ar
    19    20    21   ar
    20    21    22   ar
    21    10     2    1
    22    22    17   ar
    23     9     5    1
    24    14     7    1
    25    15    16    1
@<TRIPOS>MOLECULE
*****
 22 25 0 0 0
SMALL
GASTEIGER

@<TRIPOS>ATOM
      1 BR        143.5010  143.3041  170.7176 Br      1  UNL1       -0.0533
      2 C         142.4678  142.6376  169.8584 C.2     1  UNL1        0.0168
      3 C         141.0243  143.0252  169.9841 C.2     1  UNL1        0.0042
      4 C         139.9911  142.3587  169.1249 C.2     1  UNL1        0.0190
      5 C         140.4015  141.3045  168.1399 C.2     1  UNL1        0.0771
      6 N         139.6134  140.4794  167.1662 N.2     1  UNL1       -0.2487
      7 C         140.5700  139.5818  166.4385 C.2     1  UNL1        0.0724
      8 C         141.9492  139.8521  166.9626 C.2     1  UNL1       -0.0092
      9 C         141.8450  140.9168  168.0142 C.2     1  UNL1       -0.0024
     10 C         142.8782  141.5834  168.8734 C.3     1  UNL1        0.0607
     11 C         143.1216  139.0939  166.4147 C.3     1  UNL1        0.0274
     12 C         142.9149  138.0654  165.3426 C.3     1  UNL1        0.0068
     13 C         141.5357  137.7950  164.8186 C.3     1  UNL1        0.0260
     14 C         140.3632  138.5533  165.3665 C.3     1  UNL1        0.1095
     15 N         138.9839  138.2830  164.8424 N.pl3   1  UNL1       -0.3294
     16 H         138.3911  137.6563  165.3168 H       1  UNL1        0.1471
     17 C         138.5079  138.9674  163.5954 C.ar    1  UNL1        0.0449
     18 C         138.0572  140.3971  163.6500 C.ar    1  UNL1        0.0143
     19 C         137.5812  141.0816  162.4031 C.ar    1  UNL1        0.0013
     20 C         137.5560  140.3364  161.1015 C.ar    1  UNL1        0.0001
     21 C         138.0067  138.9067  161.0469 C.ar    1  UNL1        0.0013
     22 C         138.4827  138.2223  162.2939 C.ar    1  UNL1        0.0143
@<TRIPOS>BOND
     1     1     2    1
     2     2     3    2
     3     3     4    1
     4     4     5    2
     5     5     6    1
     6     6     7    2
     7     7     8    1
     8     8     9    2
     9     9    10    1
    10     8    11    1
    11    11    12    1
    12    12    13    1
    13    13    14    1
    14    14    15    1
    15    15    17    1
    16    17    18   ar
    17    18    19   ar
    18    19    20   ar
    19    20    21   ar
    20    21    22   ar
    21    10     2    1
    22    22    17   ar
    23     9     5    1
    24    14     7    1
    25    15    16    1
@<TRIPOS>MOLECULE
*****
 22 25 0 0 0
SMALL
GASTEIGER

@<TRIPOS>ATOM
      1 BR        140.3953  145.4256  158.4510 Br      1  UNL1       -0.0533
      2 C         140.7401  145.2552  159.9008 C.2     1  UNL1        0.0168
      3 C         139.9121  145.9310  160.9532 C.2     1  UNL1        0.0042
      4 C         140.2569  145.7605  162.4030 C.2     1  UNL1        0.0190
      5 C         141.4298  144.9142  162.8005 C.2     1  UNL1        0.0771
      6 N         142.0073  144.5648  164.1400 N.2     1  UNL1       -0.2487
      7 C         143.1923  143.6729  163.9155 C.2     1  UNL1        0.0724
      8 C         143.3472  143.4712  162.4373 C.2     1  UNL1       -0.0092
      9 C         142.2579  144.2384  161.7482 C.2     1  UNL1       -0.0024
     10 C         141.9130  144.4089  160.2983 C.3     1  UNL1        0.0607
     11 C         144.4601  142.6151  161.9097 C.3     1  UNL1        0.0274
     12 C         145.4181  141.9606  162.8604 C.3     1  UNL1        0.0068
     13 C         145.2632  142.1623  164.3386 C.3     1  UNL1        0.0260
     14 C         144.1503  143.0185  164.8662 C.3     1  UNL1        0.1095
     15 N         143.9955  143.2202  166.3446 N.pl3   1  UNL1       -0.3294
     16 H         144.3332  144.0428  166.7672 H       1  UNL1        0.1471
     17 C         143.3261  142.1687  167.1790 C.ar    1  UNL1        0.0449
     18 C         142.6902  140.9807  166.5200 C.ar    1  UNL1        0.0143
     19 C         142.0208  139.9291  167.3543 C.ar    1  UNL1        0.0013
     20 C         141.9874  140.0656  168.8477 C.ar    1  UNL1        0.0001
     21 C         142.6233  141.2536  169.5067 C.ar    1  UNL1        0.0013
     22 C         143.2926  142.3051  168.6724 C.ar    1  UNL1        0.0143
@<TRIPOS>BOND
     1     1     2    1
     2     2     3    2
     3     3     4    1
     4     4     5    2
     5     5     6    1
     6     6     7    2
     7     7     8    1
     8     8     9    2
     9     9    10    1
    10     8    11    1
    11    11    12    1
    12    12    13    1
    13    13    14    1
    14    14    15    1
    15    15    17    1
    16    17    18   ar
    17    18    19   ar
    18    19    20   ar
    19    20    21   ar
    20    21    22   ar
    21    10     2    1
    22    22    17   ar
    23     9     5    1
    24    14     7    1
    25    15    16    1
@<TRIPOS>MOLECULE
*****
 22 25 0 0 0
SMALL
GASTEIGER

@<TRIPOS>ATOM
      1 BR        142.5963  139.0660  169.9651 Br      1  UNL1       -0.0533
      2 C         141.9051  139.9293  168.9518 C.2     1  UNL1        0.0168
      3 C         140.4082  139.9217  168.8563 C.2     1  UNL1        0.0042
      4 C         139.7169  140.7850  167.8430 C.2     1  UNL1        0.0190
      5 C         140.5225  141.6559  166.9251 C.2     1  UNL1        0.0771
      6 N         140.1228  142.6057  165.8352 N.2     1  UNL1       -0.2487
      7 C         141.3727  143.2003  165.2570 C.2     1  UNL1        0.0724
      8 C         142.5449  142.6180  165.9896 C.2     1  UNL1       -0.0092
      9 C         142.0194  141.6634  167.0206 C.2     1  UNL1       -0.0024
     10 C         142.7107  140.8001  168.0339 C.3     1  UNL1        0.0607
     11 C         143.9392  143.0320  165.6233 C.3     1  UNL1        0.0274
     12 C         144.1614  144.0285  164.5244 C.3     1  UNL1        0.0068
     13 C         142.9892  144.6109  163.7918 C.3     1  UNL1        0.0260
     14 C         141.5948  144.1968  164.1581 C.3     1  UNL1        0.1095
     15 N         140.4226  144.7793  163.4255 N.pl3   1  UNL1       -0.3294
     16 H         140.0499  145.6470  163.7037 H       1  UNL1        0.1471
     17 C         139.8182  144.0396  162.2689 C.ar    1  UNL1        0.0449
     18 C         140.3225  144.2826  160.8772 C.ar    1  UNL1        0.0143
     19 C         139.7182  143.5429  159.7207 C.ar    1  UNL1        0.0013
     20 C         138.6095  142.5604  159.9557 C.ar    1  UNL1        0.0001
     21 C         138.1051  142.3174  161.3474 C.ar    1  UNL1        0.0013
     22 C         138.7095  143.0570  162.5040 C.ar    1  UNL1        0.0143
@<TRIPOS>BOND
     1     1     2    1
     2     2     3    2
     3     3     4    1
     4     4     5    2
     5     5     6    1
     6     6     7    2
     7     7     8    1
     8     8     9    2
     9     9    10    1
    10     8    11    1
    11    11    12    1
    12    12    13    1
    13    13    14    1
    14    14    15    1
    15    15    17    1
    16    17    18   ar
    17    18    19   ar
    18    19    20   ar
    19    20    21   ar
    20    21    22   ar
    21    10     2    1
    22    22    17   ar
    23     9     5    1
    24    14     7    1
    25    15    16    1
