@<TRIPOS>MOLECULE
*****
 35 38 0 0 0
SMALL
GASTEIGER

@<TRIPOS>ATOM
      1 C         139.6390  139.1578  164.8440 C.ar    1  UNL1        0.0291
      2 C         140.1674  140.2874  165.6776 C.ar    1  UNL1        0.0050
      3 C         139.7420  140.4257  167.1093 C.ar    1  UNL1        0.0311
      4 C         140.2704  141.5553  167.9429 C.ar    1  UNL1        0.0522
      5 C         139.8451  141.6936  169.3746 C.ar    1  UNL1        0.0853
      6 C         138.8914  140.7024  169.9728 C.ar    1  UNL1        0.1045
      7 N         138.3630  139.5728  169.1393 N.ar    1  UNL1       -0.2435
      8 C         138.7883  139.4344  167.7075 C.ar    1  UNL1        0.0847
      9 C         138.2599  138.3049  166.8739 C.ar    1  UNL1        0.0488
     10 C         138.6853  138.1666  165.4422 C.ar    1  UNL1        0.1416
     11 F         138.1569  137.0369  164.6086 F       1  UNL1       -0.2041
     12 C         140.9150  138.7427  160.5486 C.ar    1  UNL1        0.0888
     13 C         140.1278  139.9428  160.9845 C.ar    1  UNL1        0.0173
     14 C         139.7025  140.0812  162.4164 C.ar    1  UNL1        0.0029
     15 C         140.0643  139.0195  163.4122 C.ar    1  UNL1        0.0213
     16 C         140.8515  137.8193  162.9763 C.ar    1  UNL1        0.0986
     17 N         141.2768  137.6809  161.5446 N.ar    1  UNL1       -0.2457
     18 C         141.3403  138.6043  159.1169 C.3     1  UNL1        0.1876
     19 C         142.7929  137.3922  157.3363 C.3     1  UNL1        0.1747
     20 O         142.5305  137.7615  158.7663 O.3     1  UNL1       -0.3447
     21 C         140.3735  142.8233  170.2083 C.2     1  UNL1        0.2455
     22 N         141.1474  142.5334  171.4601 N.am    1  UNL1       -0.3252
     23 O         140.1279  144.2427  169.7901 O.2     1  UNL1       -0.2703
     24 H         141.3086  141.6017  171.7345 H       1  UNL1        0.1453
     25 H         141.4942  143.2747  172.0072 H       1  UNL1        0.1453
     26 N         141.2241  142.5466  167.3447 N.pl3   1  UNL1       -0.3292
     27 H         140.8830  143.3818  166.9506 H       1  UNL1        0.1471
     28 C         142.6976  142.2653  167.3470 C.3     1  UNL1        0.1117
     29 C         143.4236  142.0797  168.6464 C.3     1  UNL1        0.0278
     30 C         143.4449  142.1696  166.0500 C.ar    1  UNL1        0.0978
     31 C         144.2224  143.2736  165.3968 C.ar    1  UNL1        0.0383
     32 C         144.8039  142.7395  164.1215 C.ar    1  UNL1        0.0964
     33 N         144.3858  141.3053  163.9864 N.ar    1  UNL1       -0.2476
     34 C         144.7446  140.3848  162.8577 C.3     1  UNL1        0.1537
     35 N         143.5459  140.9530  165.1783 N.ar    1  UNL1       -0.1719
@<TRIPOS>BOND
     1    19    20    1
     2    20    18    1
     3    18    12    1
     4    12    13   ar
     5    13    14   ar
     6    14    15   ar
     7    15     1    1
     8     1     2   ar
     9     2     3   ar
    10     3     4   ar
    11     4    26    1
    12    26    28    1
    13    28    29    1
    14    28    30    1
    15    30    31   ar
    16    31    32   ar
    17    32    33   ar
    18    33    34    1
    19    33    35   ar
    20     4     5   ar
    21     5    21    1
    22    21    22   am
    23    21    23    2
    24     5     6   ar
    25     6     7   ar
    26     7     8   ar
    27     8     9   ar
    28     9    10   ar
    29    10    11    1
    30    15    16   ar
    31    16    17   ar
    32    17    12   ar
    33    10     1   ar
    34     8     3   ar
    35    35    30   ar
    36    26    27    1
    37    22    24    1
    38    22    25    1
@<TRIPOS>MOLECULE
*****
 35 38 0 0 0
SMALL
GASTEIGER

@<TRIPOS>ATOM
      1 C         143.0747  141.8615  165.0068 C.ar    1  UNL1        0.0291
      2 C         142.0627  142.8087  164.4334 C.ar    1  UNL1        0.0050
      3 C         142.1298  143.1910  162.9846 C.ar    1  UNL1        0.0311
      4 C         141.1178  144.1382  162.4112 C.ar    1  UNL1        0.0522
      5 C         141.1849  144.5205  160.9623 C.ar    1  UNL1        0.0853
      6 C         142.2639  143.9556  160.0867 C.ar    1  UNL1        0.1045
      7 N         143.2758  143.0084  160.6600 N.ar    1  UNL1       -0.2435
      8 C         143.2088  142.6261  162.1090 C.ar    1  UNL1        0.0847
      9 C         144.2208  141.6789  162.6823 C.ar    1  UNL1        0.0488
     10 C         144.1537  141.2966  164.1312 C.ar    1  UNL1        0.1416
     11 F         145.1657  140.3494  164.7046 F       1  UNL1       -0.2041
     12 C         142.8736  140.7144  169.3535 C.ar    1  UNL1        0.0888
     13 C         143.2779  142.1051  168.9628 C.ar    1  UNL1        0.0173
     14 C         143.3450  142.4874  167.5138 C.ar    1  UNL1        0.0029
     15 C         143.0077  141.4792  166.4557 C.ar    1  UNL1        0.0213
     16 C         142.6033  140.0886  166.8465 C.ar    1  UNL1        0.0986
     17 N         142.5363  139.7062  168.2953 N.ar    1  UNL1       -0.2457
     18 C         142.8066  140.3321  170.8024 C.3     1  UNL1        0.1876
     19 C         140.5863  141.6468  171.1062 C.3     1  UNL1        0.1747
     20 O         141.7843  140.9657  171.6987 O.3     1  UNL1       -0.3447
     21 C         140.1729  145.4678  160.3889 C.2     1  UNL1        0.2455
     22 N         139.8750  145.4474  158.9189 N.am    1  UNL1       -0.3252
     23 O         139.4588  146.4353  161.2855 O.2     1  UNL1       -0.2703
     24 H         140.3437  144.8124  158.3305 H       1  UNL1        0.1453
     25 H         139.2108  146.0691  158.5426 H       1  UNL1        0.1453
     26 N         140.0388  144.7031  163.2867 N.pl3   1  UNL1       -0.3292
     27 H         140.1112  145.6251  163.6245 H       1  UNL1        0.1471
     28 C         138.8494  143.8633  163.6477 C.3     1  UNL1        0.1117
     29 C         137.9320  144.2977  164.7520 C.3     1  UNL1        0.0278
     30 C         138.5776  142.5892  162.9044 C.ar    1  UNL1        0.0978
     31 C         138.0525  142.4805  161.5035 C.ar    1  UNL1        0.0383
     32 C         137.9336  141.0241  161.1647 C.ar    1  UNL1        0.0964
     33 N         138.3851  140.2326  162.3562 N.ar    1  UNL1       -0.2476
     34 C         138.4307  138.7366  162.4552 C.3     1  UNL1        0.1537
     35 N         138.7832  141.1999  163.4314 N.ar    1  UNL1       -0.1719
@<TRIPOS>BOND
     1    19    20    1
     2    20    18    1
     3    18    12    1
     4    12    13   ar
     5    13    14   ar
     6    14    15   ar
     7    15     1    1
     8     1     2   ar
     9     2     3   ar
    10     3     4   ar
    11     4    26    1
    12    26    28    1
    13    28    29    1
    14    28    30    1
    15    30    31   ar
    16    31    32   ar
    17    32    33   ar
    18    33    34    1
    19    33    35   ar
    20     4     5   ar
    21     5    21    1
    22    21    22   am
    23    21    23    2
    24     5     6   ar
    25     6     7   ar
    26     7     8   ar
    27     8     9   ar
    28     9    10   ar
    29    10    11    1
    30    15    16   ar
    31    16    17   ar
    32    17    12   ar
    33    10     1   ar
    34     8     3   ar
    35    35    30   ar
    36    26    27    1
    37    22    24    1
    38    22    25    1
@<TRIPOS>MOLECULE
*****
 35 38 0 0 0
SMALL
GASTEIGER

@<TRIPOS>ATOM
      1 C         141.0679  139.2726  165.4715 C.ar    1  UNL1        0.0291
      2 C         140.0602  139.8221  164.5058 C.ar    1  UNL1        0.0050
      3 C         140.1350  139.4542  163.0535 C.ar    1  UNL1        0.0311
      4 C         139.1274  140.0037  162.0877 C.ar    1  UNL1        0.0522
      5 C         139.2021  139.6358  160.6355 C.ar    1  UNL1        0.0853
      6 C         140.2846  138.7184  160.1490 C.ar    1  UNL1        0.1045
      7 N         141.2923  138.1689  161.1147 N.ar    1  UNL1       -0.2435
      8 C         141.2175  138.5368  162.5670 C.ar    1  UNL1        0.0847
      9 C         142.2251  137.9873  163.5327 C.ar    1  UNL1        0.0488
     10 C         142.1504  138.3552  164.9850 C.ar    1  UNL1        0.1416
     11 F         143.1580  137.8057  165.9508 F       1  UNL1       -0.2041
     12 C         140.8436  140.3763  169.8283 C.ar    1  UNL1        0.0888
     13 C         142.1623  140.4056  169.1142 C.ar    1  UNL1        0.0173
     14 C         142.2371  140.0377  167.6619 C.ar    1  UNL1        0.0029
     15 C         140.9931  139.6405  166.9238 C.ar    1  UNL1        0.0213
     16 C         139.6744  139.6112  167.6379 C.ar    1  UNL1        0.0986
     17 N         139.5996  139.9791  169.0902 N.ar    1  UNL1       -0.2457
     18 C         140.7688  140.7441  171.2806 C.3     1  UNL1        0.1876
     19 C         139.7946  143.0977  170.7688 C.3     1  UNL1        0.1747
     20 O         140.5420  142.1715  171.6819 O.3     1  UNL1       -0.3447
     21 C         138.1945  140.1853  159.6697 C.2     1  UNL1        0.2455
     22 N         138.6238  141.1543  158.6083 N.am    1  UNL1       -0.3252
     23 O         136.7575  139.7657  159.7654 O.2     1  UNL1       -0.2703
     24 H         139.5669  141.4297  158.5455 H       1  UNL1        0.1453
     25 H         137.9624  141.5150  157.9744 H       1  UNL1        0.1453
     26 N         138.0449  140.9211  162.5742 N.pl3   1  UNL1       -0.3292
     27 H         137.1290  140.5810  162.6955 H       1  UNL1        0.1471
     28 C         138.3580  142.3567  162.8760 C.3     1  UNL1        0.1117
     29 C         137.7593  143.0173  164.0823 C.3     1  UNL1        0.0278
     30 C         139.2697  143.1317  161.9715 C.ar    1  UNL1        0.0978
     31 C         140.6643  143.5776  162.2971 C.ar    1  UNL1        0.0383
     32 C         141.2034  144.3183  161.1093 C.ar    1  UNL1        0.0964
     33 N         140.1419  144.3302  160.0496 N.ar    1  UNL1       -0.2476
     34 C         140.2554  144.9642  158.6949 C.3     1  UNL1        0.1537
     35 N         138.9467  143.5969  160.5824 N.ar    1  UNL1       -0.1719
@<TRIPOS>BOND
     1    19    20    1
     2    20    18    1
     3    18    12    1
     4    12    13   ar
     5    13    14   ar
     6    14    15   ar
     7    15     1    1
     8     1     2   ar
     9     2     3   ar
    10     3     4   ar
    11     4    26    1
    12    26    28    1
    13    28    29    1
    14    28    30    1
    15    30    31   ar
    16    31    32   ar
    17    32    33   ar
    18    33    34    1
    19    33    35   ar
    20     4     5   ar
    21     5    21    1
    22    21    22   am
    23    21    23    2
    24     5     6   ar
    25     6     7   ar
    26     7     8   ar
    27     8     9   ar
    28     9    10   ar
    29    10    11    1
    30    15    16   ar
    31    16    17   ar
    32    17    12   ar
    33    10     1   ar
    34     8     3   ar
    35    35    30   ar
    36    26    27    1
    37    22    24    1
    38    22    25    1
@<TRIPOS>MOLECULE
*****
 35 38 0 0 0
SMALL
GASTEIGER

@<TRIPOS>ATOM
      1 C         139.5530  139.3326  165.0041 C.ar    1  UNL1        0.0291
      2 C         139.7478  140.4427  164.0144 C.ar    1  UNL1        0.0050
      3 C         139.4983  140.1992  162.5555 C.ar    1  UNL1        0.0311
      4 C         139.6931  141.3093  161.5657 C.ar    1  UNL1        0.0522
      5 C         139.4437  141.0658  160.1068 C.ar    1  UNL1        0.0853
      6 C         138.9995  139.7121  159.6377 C.ar    1  UNL1        0.1045
      7 N         138.8047  138.6019  160.6274 N.ar    1  UNL1       -0.2435
      8 C         139.0541  138.8454  162.0864 C.ar    1  UNL1        0.0847
      9 C         138.8594  137.7353  163.0761 C.ar    1  UNL1        0.0488
     10 C         139.1088  137.9789  164.5350 C.ar    1  UNL1        0.1416
     11 F         138.9140  136.8687  165.5248 F       1  UNL1       -0.2041
     12 C         140.3012  140.0632  169.3810 C.ar    1  UNL1        0.0888
     13 C         141.4313  140.1641  168.3999 C.ar    1  UNL1        0.0173
     14 C         141.1819  139.9205  166.9409 C.ar    1  UNL1        0.0029
     15 C         139.8024  139.5761  166.4631 C.ar    1  UNL1        0.0213
     16 C         138.6723  139.4752  167.4443 C.ar    1  UNL1        0.0986
     17 N         138.9217  139.7187  168.9032 N.ar    1  UNL1       -0.2457
     18 C         140.5506  140.3067  170.8399 C.3     1  UNL1        0.1876
     19 C         139.8828  142.8003  170.5467 C.3     1  UNL1        0.1747
     20 O         140.2644  141.6534  171.4351 O.3     1  UNL1       -0.3447
     21 C         139.6384  142.1760  159.1170 C.2     1  UNL1        0.2455
     22 N         140.4022  141.9261  157.8505 N.am    1  UNL1       -0.3252
     23 O         139.0694  143.5359  159.3938 O.2     1  UNL1       -0.2703
     24 H         140.7756  141.0335  157.6688 H       1  UNL1        0.1453
     25 H         140.5300  142.6547  157.2008 H       1  UNL1        0.1453
     26 N         140.1373  142.6631  162.0349 N.pl3   1  UNL1       -0.3292
     27 H         139.4704  143.3271  162.3240 H       1  UNL1        0.1471
     28 C         141.5976  143.0050  162.0636 C.3     1  UNL1        0.1117
     29 C         142.1485  144.0223  161.1090 C.3     1  UNL1        0.0278
     30 C         142.5068  142.3296  163.0471 C.ar    1  UNL1        0.0978
     31 C         142.8246  142.8139  164.4307 C.ar    1  UNL1        0.0383
     32 C         143.7721  141.8349  165.0583 C.ar    1  UNL1        0.0964
     33 N         144.0398  140.7455  164.0626 N.ar    1  UNL1       -0.2476
     34 C         144.9326  139.5587  164.2729 C.3     1  UNL1        0.1537
     35 N         143.2578  141.0511  162.8195 N.ar    1  UNL1       -0.1719
@<TRIPOS>BOND
     1    19    20    1
     2    20    18    1
     3    18    12    1
     4    12    13   ar
     5    13    14   ar
     6    14    15   ar
     7    15     1    1
     8     1     2   ar
     9     2     3   ar
    10     3     4   ar
    11     4    26    1
    12    26    28    1
    13    28    29    1
    14    28    30    1
    15    30    31   ar
    16    31    32   ar
    17    32    33   ar
    18    33    34    1
    19    33    35   ar
    20     4     5   ar
    21     5    21    1
    22    21    22   am
    23    21    23    2
    24     5     6   ar
    25     6     7   ar
    26     7     8   ar
    27     8     9   ar
    28     9    10   ar
    29    10    11    1
    30    15    16   ar
    31    16    17   ar
    32    17    12   ar
    33    10     1   ar
    34     8     3   ar
    35    35    30   ar
    36    26    27    1
    37    22    24    1
    38    22    25    1
@<TRIPOS>MOLECULE
*****
 35 38 0 0 0
SMALL
GASTEIGER

@<TRIPOS>ATOM
      1 C         140.1873  139.1644  165.4528 C.ar    1  UNL1        0.0291
      2 C         141.0947  139.7656  164.4208 C.ar    1  UNL1        0.0050
      3 C         140.9449  139.3855  162.9776 C.ar    1  UNL1        0.0311
      4 C         141.8523  139.9868  161.9455 C.ar    1  UNL1        0.0522
      5 C         141.7025  139.6066  160.5023 C.ar    1  UNL1        0.0853
      6 C         140.6452  138.6253  160.0910 C.ar    1  UNL1        0.1045
      7 N         139.7378  138.0240  161.1230 N.ar    1  UNL1       -0.2435
      8 C         139.8876  138.4041  162.5663 C.ar    1  UNL1        0.0847
      9 C         138.9802  137.8029  163.5983 C.ar    1  UNL1        0.0488
     10 C         139.1301  138.1830  165.0416 C.ar    1  UNL1        0.1416
     11 F         138.2227  137.5817  166.0737 F       1  UNL1       -0.2041
     12 C         140.6367  140.3047  169.7828 C.ar    1  UNL1        0.0888
     13 C         141.8512  140.1691  168.9130 C.ar    1  UNL1        0.0173
     14 C         141.7014  139.7890  167.4697 C.ar    1  UNL1        0.0029
     15 C         140.3371  139.5445  166.8962 C.ar    1  UNL1        0.0213
     16 C         139.1226  139.6802  167.7659 C.ar    1  UNL1        0.0986
     17 N         139.2724  140.0603  169.2092 N.ar    1  UNL1       -0.2457
     18 C         140.7864  140.6849  171.2260 C.3     1  UNL1        0.1876
     19 C         139.8909  143.0654  170.6958 C.3     1  UNL1        0.1747
     20 O         140.4633  142.0802  171.6715 O.3     1  UNL1       -0.3447
     21 C         142.6099  140.2079  159.4702 C.2     1  UNL1        0.2455
     22 N         143.9218  139.5537  159.1525 N.am    1  UNL1       -0.3252
     23 O         142.2054  141.4633  158.7558 O.2     1  UNL1       -0.2703
     24 H         144.1873  138.7297  159.6213 H       1  UNL1        0.1453
     25 H         144.5174  139.9483  158.4751 H       1  UNL1        0.1453
     26 N         142.9095  140.9682  162.3567 N.pl3   1  UNL1       -0.3292
     27 H         143.7737  140.6455  162.7007 H       1  UNL1        0.1471
     28 C         142.6501  142.4413  162.2439 C.3     1  UNL1        0.1117
     29 C         143.5869  143.3098  161.4578 C.3     1  UNL1        0.0278
     30 C         141.4538  143.0458  162.9173 C.ar    1  UNL1        0.0978
     31 C         141.4114  143.5961  164.3120 C.ar    1  UNL1        0.0383
     32 C         140.0212  144.0966  164.5709 C.ar    1  UNL1        0.0964
     33 N         139.2044  143.8557  163.3361 N.ar    1  UNL1       -0.2476
     34 C         137.7565  144.2031  163.1550 C.3     1  UNL1        0.1537
     35 N         140.0898  143.2062  162.3140 N.ar    1  UNL1       -0.1719
@<TRIPOS>BOND
     1    19    20    1
     2    20    18    1
     3    18    12    1
     4    12    13   ar
     5    13    14   ar
     6    14    15   ar
     7    15     1    1
     8     1     2   ar
     9     2     3   ar
    10     3     4   ar
    11     4    26    1
    12    26    28    1
    13    28    29    1
    14    28    30    1
    15    30    31   ar
    16    31    32   ar
    17    32    33   ar
    18    33    34    1
    19    33    35   ar
    20     4     5   ar
    21     5    21    1
    22    21    22   am
    23    21    23    2
    24     5     6   ar
    25     6     7   ar
    26     7     8   ar
    27     8     9   ar
    28     9    10   ar
    29    10    11    1
    30    15    16   ar
    31    16    17   ar
    32    17    12   ar
    33    10     1   ar
    34     8     3   ar
    35    35    30   ar
    36    26    27    1
    37    22    24    1
    38    22    25    1
@<TRIPOS>MOLECULE
*****
 35 38 0 0 0
SMALL
GASTEIGER

@<TRIPOS>ATOM
      1 C         142.9250  140.7284  165.5478 C.ar    1  UNL1        0.0291
      2 C         142.4096  141.7369  164.5643 C.ar    1  UNL1        0.0050
      3 C         142.7156  141.5844  163.1038 C.ar    1  UNL1        0.0311
      4 C         142.2002  142.5930  162.1203 C.ar    1  UNL1        0.0522
      5 C         142.5062  142.4405  160.6598 C.ar    1  UNL1        0.0853
      6 C         143.3275  141.2795  160.1827 C.ar    1  UNL1        0.1045
      7 N         143.8429  140.2710  161.1662 N.ar    1  UNL1       -0.2435
      8 C         143.5369  140.4235  162.6268 C.ar    1  UNL1        0.0847
      9 C         144.0523  139.4150  163.6103 C.ar    1  UNL1        0.0488
     10 C         143.7463  139.5674  165.0708 C.ar    1  UNL1        0.1416
     11 F         144.2617  138.5589  166.0543 F       1  UNL1       -0.2041
     12 C         142.0072  141.1858  169.9295 C.ar    1  UNL1        0.0888
     13 C         141.4968  139.9929  169.1768 C.ar    1  UNL1        0.0173
     14 C         141.8028  139.8404  167.7162 C.ar    1  UNL1        0.0029
     15 C         142.6191  140.8809  167.0084 C.ar    1  UNL1        0.0213
     16 C         143.1295  142.0738  167.7610 C.ar    1  UNL1        0.0986
     17 N         142.8236  142.2262  169.2215 N.ar    1  UNL1       -0.2457
     18 C         141.7013  141.3382  171.3900 C.3     1  UNL1        0.1876
     19 C         139.6969  142.8856  170.8086 C.3     1  UNL1        0.1747
     20 O         140.5409  142.1812  171.8291 O.3     1  UNL1       -0.3447
     21 C         141.9908  143.4490  159.6762 C.2     1  UNL1        0.2455
     22 N         141.4062  142.9938  158.3720 N.am    1  UNL1       -0.3252
     23 O         142.0600  144.9127  159.9969 O.2     1  UNL1       -0.2703
     24 H         141.3607  142.0331  158.1615 H       1  UNL1        0.1453
     25 H         141.0679  143.6557  157.7264 H       1  UNL1        0.1453
     26 N         141.3789  143.7539  162.5973 N.pl3   1  UNL1       -0.3292
     27 H         141.8226  144.5734  162.9149 H       1  UNL1        0.1471
     28 C         139.8814  143.6664  162.5904 C.3     1  UNL1        0.1117
     29 C         139.0581  144.9101  162.4308 C.3     1  UNL1        0.0278
     30 C         139.2072  142.3351  162.7429 C.ar    1  UNL1        0.0978
     31 C         138.6987  141.7462  164.0253 C.ar    1  UNL1        0.0383
     32 C         138.1004  140.4062  163.7149 C.ar    1  UNL1        0.0964
     33 N         138.2392  140.1669  162.2406 N.ar    1  UNL1       -0.2476
     34 C         137.7754  138.9493  161.4975 C.3     1  UNL1        0.1537
     35 N         138.9233  141.3590  161.6398 N.ar    1  UNL1       -0.1719
@<TRIPOS>BOND
     1    19    20    1
     2    20    18    1
     3    18    12    1
     4    12    13   ar
     5    13    14   ar
     6    14    15   ar
     7    15     1    1
     8     1     2   ar
     9     2     3   ar
    10     3     4   ar
    11     4    26    1
    12    26    28    1
    13    28    29    1
    14    28    30    1
    15    30    31   ar
    16    31    32   ar
    17    32    33   ar
    18    33    34    1
    19    33    35   ar
    20     4     5   ar
    21     5    21    1
    22    21    22   am
    23    21    23    2
    24     5     6   ar
    25     6     7   ar
    26     7     8   ar
    27     8     9   ar
    28     9    10   ar
    29    10    11    1
    30    15    16   ar
    31    16    17   ar
    32    17    12   ar
    33    10     1   ar
    34     8     3   ar
    35    35    30   ar
    36    26    27    1
    37    22    24    1
    38    22    25    1
@<TRIPOS>MOLECULE
*****
 35 38 0 0 0
SMALL
GASTEIGER

@<TRIPOS>ATOM
      1 C         142.1351  143.3310  163.9653 C.ar    1  UNL1        0.0291
      2 C         141.2580  142.5723  164.9167 C.ar    1  UNL1        0.0050
      3 C         141.7562  142.2374  166.2913 C.ar    1  UNL1        0.0311
      4 C         140.8791  141.4788  167.2427 C.ar    1  UNL1        0.0522
      5 C         141.3772  141.1439  168.6174 C.ar    1  UNL1        0.0853
      6 C         142.7525  141.5677  169.0406 C.ar    1  UNL1        0.1045
      7 N         143.6296  142.3263  168.0893 N.ar    1  UNL1       -0.2435
      8 C         143.1314  142.6612  166.7146 C.ar    1  UNL1        0.0847
      9 C         144.0085  143.4199  165.7632 C.ar    1  UNL1        0.0488
     10 C         143.5104  143.7547  164.3886 C.ar    1  UNL1        0.1416
     11 F         144.3875  144.5134  163.4371 F       1  UNL1       -0.2041
     12 C         140.6408  144.3356  159.8412 C.ar    1  UNL1        0.0888
     13 C         140.5285  145.3441  160.9459 C.ar    1  UNL1        0.0173
     14 C         141.0266  145.0092  162.3206 C.ar    1  UNL1        0.0029
     15 C         141.6370  143.6659  162.5906 C.ar    1  UNL1        0.0213
     16 C         141.7493  142.6574  161.4859 C.ar    1  UNL1        0.0986
     17 N         141.2512  142.9923  160.1112 N.ar    1  UNL1       -0.2457
     18 C         140.1427  144.6705  158.4665 C.3     1  UNL1        0.1876
     19 C         139.8079  146.3983  156.5554 C.3     1  UNL1        0.1747
     20 O         140.2423  146.0769  157.9547 O.3     1  UNL1       -0.3447
     21 C         140.5001  140.3852  169.5688 C.2     1  UNL1        0.2455
     22 N         141.0758  139.2742  170.3960 N.am    1  UNL1       -0.3252
     23 O         139.0475  140.7376  169.6931 O.2     1  UNL1       -0.2703
     24 H         142.0293  139.0429  170.3144 H       1  UNL1        0.1453
     25 H         140.5002  138.7762  171.0204 H       1  UNL1        0.1453
     26 N         139.5039  141.0550  166.8195 N.pl3   1  UNL1       -0.3292
     27 H         138.7468  141.6776  166.9115 H       1  UNL1        0.1471
     28 C         139.2822  139.6826  166.2560 C.3     1  UNL1        0.1117
     29 C         138.1858  138.8161  166.8012 C.3     1  UNL1        0.0278
     30 C         140.1568  139.1767  165.1474 C.ar    1  UNL1        0.0978
     31 C         141.4424  138.4217  165.3132 C.ar    1  UNL1        0.0383
     32 C         141.9796  138.1154  163.9466 C.ar    1  UNL1        0.0964
     33 N         141.0261  138.6810  162.9362 N.ar    1  UNL1       -0.2476
     34 C         141.1733  138.6042  161.4454 C.3     1  UNL1        0.1537
     35 N         139.8995  139.3369  163.6783 N.ar    1  UNL1       -0.1719
@<TRIPOS>BOND
     1    19    20    1
     2    20    18    1
     3    18    12    1
     4    12    13   ar
     5    13    14   ar
     6    14    15   ar
     7    15     1    1
     8     1     2   ar
     9     2     3   ar
    10     3     4   ar
    11     4    26    1
    12    26    28    1
    13    28    29    1
    14    28    30    1
    15    30    31   ar
    16    31    32   ar
    17    32    33   ar
    18    33    34    1
    19    33    35   ar
    20     4     5   ar
    21     5    21    1
    22    21    22   am
    23    21    23    2
    24     5     6   ar
    25     6     7   ar
    26     7     8   ar
    27     8     9   ar
    28     9    10   ar
    29    10    11    1
    30    15    16   ar
    31    16    17   ar
    32    17    12   ar
    33    10     1   ar
    34     8     3   ar
    35    35    30   ar
    36    26    27    1
    37    22    24    1
    38    22    25    1
@<TRIPOS>MOLECULE
*****
 35 38 0 0 0
SMALL
GASTEIGER

@<TRIPOS>ATOM
      1 C         143.0653  140.0076  164.1433 C.ar    1  UNL1        0.0291
      2 C         141.9434  140.2028  163.1670 C.ar    1  UNL1        0.0050
      3 C         142.0869  139.7216  161.7536 C.ar    1  UNL1        0.0311
      4 C         140.9649  139.9168  160.7773 C.ar    1  UNL1        0.0522
      5 C         141.1084  139.4356  159.3638 C.ar    1  UNL1        0.0853
      6 C         142.3739  138.7592  158.9267 C.ar    1  UNL1        0.1045
      7 N         143.4958  138.5640  159.9029 N.ar    1  UNL1       -0.2435
      8 C         143.3524  139.0452  161.3164 C.ar    1  UNL1        0.0847
      9 C         144.4743  138.8500  162.2927 C.ar    1  UNL1        0.0488
     10 C         144.3308  139.3312  163.7061 C.ar    1  UNL1        0.1416
     11 F         145.4528  139.1360  164.6824 F       1  UNL1       -0.2041
     12 C         142.6349  141.4512  168.3837 C.ar    1  UNL1        0.0888
     13 C         143.2044  142.3610  167.3359 C.ar    1  UNL1        0.0173
     14 C         143.3479  141.8798  165.9224 C.ar    1  UNL1        0.0029
     15 C         142.9219  140.4888  165.5568 C.ar    1  UNL1        0.0213
     16 C         142.3524  139.5790  166.6046 C.ar    1  UNL1        0.0986
     17 N         142.2089  140.0601  168.0180 N.ar    1  UNL1       -0.2457
     18 C         142.4914  141.9323  169.7972 C.3     1  UNL1        0.1876
     19 C         140.5351  143.6418  169.7673 C.3     1  UNL1        0.1747
     20 O         141.1538  142.3847  170.3032 O.3     1  UNL1       -0.3447
     21 C         139.9865  139.6308  158.3875 C.2     1  UNL1        0.2455
     22 N         139.4544  138.4616  157.6130 N.am    1  UNL1       -0.3252
     23 O         139.3967  140.9951  158.1857 O.2     1  UNL1       -0.2703
     24 H         139.8415  137.5661  157.7454 H       1  UNL1        0.1453
     25 H         138.7180  138.5897  156.9722 H       1  UNL1        0.1453
     26 N         139.6995  140.5932  161.2144 N.pl3   1  UNL1       -0.3292
     27 H         139.6258  141.5740  161.1727 H       1  UNL1        0.1471
     28 C         138.5462  139.7751  161.7152 C.3     1  UNL1        0.1117
     29 C         137.3299  139.5894  160.8573 C.3     1  UNL1        0.0278
     30 C         138.6093  139.1426  163.0739 C.ar    1  UNL1        0.0978
     31 C         139.0457  137.7392  163.3738 C.ar    1  UNL1        0.0383
     32 C         138.9533  137.5318  164.8565 C.ar    1  UNL1        0.0964
     33 N         138.4597  138.8071  165.4731 N.ar    1  UNL1       -0.2476
     34 C         138.2207  139.0451  166.9346 C.3     1  UNL1        0.1537
     35 N         138.2471  139.8027  164.3714 N.ar    1  UNL1       -0.1719
@<TRIPOS>BOND
     1    19    20    1
     2    20    18    1
     3    18    12    1
     4    12    13   ar
     5    13    14   ar
     6    14    15   ar
     7    15     1    1
     8     1     2   ar
     9     2     3   ar
    10     3     4   ar
    11     4    26    1
    12    26    28    1
    13    28    29    1
    14    28    30    1
    15    30    31   ar
    16    31    32   ar
    17    32    33   ar
    18    33    34    1
    19    33    35   ar
    20     4     5   ar
    21     5    21    1
    22    21    22   am
    23    21    23    2
    24     5     6   ar
    25     6     7   ar
    26     7     8   ar
    27     8     9   ar
    28     9    10   ar
    29    10    11    1
    30    15    16   ar
    31    16    17   ar
    32    17    12   ar
    33    10     1   ar
    34     8     3   ar
    35    35    30   ar
    36    26    27    1
    37    22    24    1
    38    22    25    1
@<TRIPOS>MOLECULE
*****
 35 38 0 0 0
SMALL
GASTEIGER

@<TRIPOS>ATOM
      1 C         140.6010  143.0986  164.1792 C.ar    1  UNL1        0.0291
      2 C         141.1636  142.7341  162.8374 C.ar    1  UNL1        0.0050
      3 C         140.9004  143.6123  161.6502 C.ar    1  UNL1        0.0311
      4 C         141.4631  143.2479  160.3082 C.ar    1  UNL1        0.0522
      5 C         141.1999  144.1261  159.1210 C.ar    1  UNL1        0.0853
      6 C         140.3741  145.3687  159.2757 C.ar    1  UNL1        0.1045
      7 N         139.8114  145.7331  160.6175 N.ar    1  UNL1       -0.2435
      8 C         140.0746  144.8549  161.8048 C.ar    1  UNL1        0.0847
      9 C         139.5119  145.2193  163.1466 C.ar    1  UNL1        0.0488
     10 C         139.7751  144.3412  164.3338 C.ar    1  UNL1        0.1416
     11 F         139.2125  144.7056  165.6758 F       1  UNL1       -0.2041
     12 C         141.3906  140.4640  167.7410 C.ar    1  UNL1        0.0888
     13 C         140.0118  140.5398  167.1551 C.ar    1  UNL1        0.0173
     14 C         139.7486  141.4180  165.9678 C.ar    1  UNL1        0.0029
     15 C         140.8642  142.2204  165.3665 C.ar    1  UNL1        0.0213
     16 C         142.2429  142.1446  165.9524 C.ar    1  UNL1        0.0986
     17 N         142.5061  141.2665  167.1396 N.ar    1  UNL1       -0.2457
     18 C         141.6538  139.5859  168.9282 C.3     1  UNL1        0.1876
     19 C         140.6276  140.7055  171.0362 C.3     1  UNL1        0.1747
     20 O         140.6825  139.5586  170.0709 O.3     1  UNL1       -0.3447
     21 C         141.7626  143.7617  157.7791 C.2     1  UNL1        0.2455
     22 N         142.6174  144.7426  157.0328 N.am    1  UNL1       -0.3252
     23 O         141.4703  142.4164  157.1835 O.2     1  UNL1       -0.2703
     24 H         142.8092  145.6256  157.4238 H       1  UNL1        0.1453
     25 H         142.9867  144.5035  156.1521 H       1  UNL1        0.1453
     26 N         142.2889  142.0053  160.1536 N.pl3   1  UNL1       -0.3292
     27 H         141.8594  141.1576  159.8964 H       1  UNL1        0.1471
     28 C         143.7693  142.0543  160.3908 C.3     1  UNL1        0.1117
     29 C         144.6891  142.5131  159.2984 C.3     1  UNL1        0.0278
     30 C         144.3298  141.6444  161.7204 C.ar    1  UNL1        0.0978
     31 C         145.1047  142.5213  162.6588 C.ar    1  UNL1        0.0383
     32 C         145.4676  141.7045  163.8635 C.ar    1  UNL1        0.0964
     33 N         144.9169  140.3228  163.6696 N.ar    1  UNL1       -0.2476
     34 C         145.0467  139.1790  164.6313 C.3     1  UNL1        0.1537
     35 N         144.2137  140.2856  162.3451 N.ar    1  UNL1       -0.1719
@<TRIPOS>BOND
     1    19    20    1
     2    20    18    1
     3    18    12    1
     4    12    13   ar
     5    13    14   ar
     6    14    15   ar
     7    15     1    1
     8     1     2   ar
     9     2     3   ar
    10     3     4   ar
    11     4    26    1
    12    26    28    1
    13    28    29    1
    14    28    30    1
    15    30    31   ar
    16    31    32   ar
    17    32    33   ar
    18    33    34    1
    19    33    35   ar
    20     4     5   ar
    21     5    21    1
    22    21    22   am
    23    21    23    2
    24     5     6   ar
    25     6     7   ar
    26     7     8   ar
    27     8     9   ar
    28     9    10   ar
    29    10    11    1
    30    15    16   ar
    31    16    17   ar
    32    17    12   ar
    33    10     1   ar
    34     8     3   ar
    35    35    30   ar
    36    26    27    1
    37    22    24    1
    38    22    25    1
