@<TRIPOS>MOLECULE
*****
 31 33 0 0 0
SMALL
GASTEIGER

@<TRIPOS>ATOM
      1 C         138.8709  138.7784  165.7812 C.ar    1  UNL1        0.1384
      2 C         137.6988  138.3901  166.6329 C.ar    1  UNL1        0.0608
      3 C         137.6449  138.8111  168.0715 C.ar    1  UNL1        0.1023
      4 N         138.7632  139.6204  168.6585 N.ar    1  UNL1       -0.2435
      5 C         139.9353  140.0087  167.8069 C.ar    1  UNL1        0.0877
      6 C         141.0535  140.8180  168.3939 C.ar    1  UNL1        0.0574
      7 C         142.2256  141.2063  167.5422 C.ar    1  UNL1        0.1571
      8 C         142.2795  140.7853  166.1034 C.ar    1  UNL1        0.1395
      9 C         141.1612  139.9760  165.5164 C.ar    1  UNL1        0.0263
     10 C         139.9891  139.5877  166.3682 C.ar    1  UNL1        0.0560
     11 S         143.4516  141.1735  165.2518 S.O2    1  UNL1        0.0083
     12 O         142.8953  142.5601  165.1184 O.2     1  UNL1       -0.1686
     13 O         144.0079  139.7869  165.3852 O.2     1  UNL1       -0.1686
     14 C         144.6238  141.5618  164.4001 C.3     1  UNL1        0.1152
     15 C         144.2986  143.0105  164.6131 C.3     1  UNL1        0.0240
     16 C         144.9489  140.1131  164.1871 C.3     1  UNL1        0.0240
     17 C         145.7959  141.9501  163.5484 C.3     1  UNL1        0.0240
     18 N         138.9247  138.3574  164.3425 N.pl3   1  UNL1       -0.2004
     19 H         139.2736  137.4686  164.1024 H       1  UNL1        0.2982
     20 C         138.0329  140.5425  159.6190 C.3     1  UNL1        0.0519
     21 C         138.0371  140.2949  161.0984 C.2     1  UNL1        0.0948
     22 N         137.3868  141.1580  162.1387 N.2     1  UNL1       -0.0428
     23 N         137.6401  140.5372  163.4805 N.2     1  UNL1        0.0753
     24 C         138.4471  139.2905  163.2696 C.2     1  UNL1        0.3331
     25 C         138.6924  139.1407  161.7974 C.3     1  UNL1        0.1480
     26 C         139.4585  138.0315  161.1396 C.3     1  UNL1        0.0190
     27 O         143.3438  142.0156  168.1292 O.3     1  UNL1       -0.4714
     28 C         143.5454  142.0494  169.6152 C.3     1  UNL1        0.2370
     29 C         142.8159  143.0613  170.4482 C.3     1  UNL1        0.1847
     30 O         143.5859  144.0752  171.2413 O.3     1  UNL1       -0.3784
     31 H         144.0908  143.6259  171.9370 H       1  UNL1        0.2106
@<TRIPOS>BOND
     1    20    21    1
     2    21    22    2
     3    22    23    1
     4    23    24    2
     5    24    18    1
     6    18     1    1
     7     1     2   ar
     8     2     3   ar
     9     3     4   ar
    10     4     5   ar
    11     5     6   ar
    12     6     7   ar
    13     7    27    1
    14    27    28    1
    15    28    29    1
    16    29    30    1
    17     7     8   ar
    18     8    11    1
    19    11    12    2
    20    11    13    2
    21    11    14    1
    22    14    15    1
    23    14    16    1
    24    14    17    1
    25     8     9   ar
    26     9    10   ar
    27    24    25    1
    28    25    26    1
    29    25    21    1
    30    10     1   ar
    31    10     5   ar
    32    18    19    1
    33    30    31    1
@<TRIPOS>MOLECULE
*****
 31 33 0 0 0
SMALL
GASTEIGER

@<TRIPOS>ATOM
      1 C         141.1121  144.0510  163.6415 C.ar    1  UNL1        0.1384
      2 C         142.0386  144.7045  162.6594 C.ar    1  UNL1        0.0608
      3 C         143.5162  144.7181  162.9170 C.ar    1  UNL1        0.1023
      4 N         144.0673  144.0783  164.1567 N.ar    1  UNL1       -0.2435
      5 C         143.1408  143.4249  165.1388 C.ar    1  UNL1        0.0877
      6 C         143.6920  142.7851  166.3786 C.ar    1  UNL1        0.0574
      7 C         142.7655  142.1317  167.3607 C.ar    1  UNL1        0.1571
      8 C         141.2878  142.1180  167.1031 C.ar    1  UNL1        0.1395
      9 C         140.7367  142.7578  165.8634 C.ar    1  UNL1        0.0263
     10 C         141.6632  143.4112  164.8812 C.ar    1  UNL1        0.0560
     11 S         140.3613  141.4645  168.0852 S.O2    1  UNL1        0.0083
     12 O         140.2185  142.7663  168.8166 O.2     1  UNL1       -0.1686
     13 O         140.5041  140.1628  167.3538 O.2     1  UNL1       -0.1686
     14 C         139.4348  140.8110  169.0674 C.3     1  UNL1        0.1152
     15 C         139.7294  141.8921  170.0646 C.3     1  UNL1        0.0240
     16 C         139.1402  139.7300  168.0702 C.3     1  UNL1        0.0240
     17 C         138.5083  140.1576  170.0495 C.3     1  UNL1        0.0240
     18 N         139.6344  144.0374  163.3839 N.pl3   1  UNL1       -0.2004
     19 H         139.0284  144.5500  163.9664 H       1  UNL1        0.2982
     20 C         137.6082  140.0834  160.5306 C.3     1  UNL1        0.0519
     21 C         138.1487  141.4252  160.9274 C.2     1  UNL1        0.0948
     22 N         138.3051  142.6142  160.0264 N.2     1  UNL1       -0.0428
     23 N         138.8807  143.7374  160.8370 N.2     1  UNL1        0.0753
     24 C         139.0800  143.2427  162.2389 C.2     1  UNL1        0.3331
     25 C         138.6276  141.8136  162.2948 C.3     1  UNL1        0.1480
     26 C         138.6501  140.9283  163.5055 C.3     1  UNL1        0.0190
     27 O         143.3167  141.4919  168.6004 O.3     1  UNL1       -0.4714
     28 C         143.9665  142.3373  169.6553 C.3     1  UNL1        0.2370
     29 C         143.1213  143.0784  170.6485 C.3     1  UNL1        0.1847
     30 O         143.6840  144.2635  171.3758 O.3     1  UNL1       -0.3784
     31 H         144.4029  143.9735  171.9588 H       1  UNL1        0.2106
@<TRIPOS>BOND
     1    20    21    1
     2    21    22    2
     3    22    23    1
     4    23    24    2
     5    24    18    1
     6    18     1    1
     7     1     2   ar
     8     2     3   ar
     9     3     4   ar
    10     4     5   ar
    11     5     6   ar
    12     6     7   ar
    13     7    27    1
    14    27    28    1
    15    28    29    1
    16    29    30    1
    17     7     8   ar
    18     8    11    1
    19    11    12    2
    20    11    13    2
    21    11    14    1
    22    14    15    1
    23    14    16    1
    24    14    17    1
    25     8     9   ar
    26     9    10   ar
    27    24    25    1
    28    25    26    1
    29    25    21    1
    30    10     1   ar
    31    10     5   ar
    32    18    19    1
    33    30    31    1
@<TRIPOS>MOLECULE
*****
 31 33 0 0 0
SMALL
GASTEIGER

@<TRIPOS>ATOM
      1 C         139.4267  139.0742  163.4989 C.ar    1  UNL1        0.1384
      2 C         139.8183  138.2342  162.3196 C.ar    1  UNL1        0.0608
      3 C         141.1167  137.4833  162.3318 C.ar    1  UNL1        0.1023
      4 N         142.0235  137.5723  163.5234 N.ar    1  UNL1       -0.2435
      5 C         141.6318  138.4123  164.7027 C.ar    1  UNL1        0.0877
      6 C         142.5386  138.5013  165.8943 C.ar    1  UNL1        0.0574
      7 C         142.1470  139.3413  167.0737 C.ar    1  UNL1        0.1571
      8 C         140.8485  140.0923  167.0615 C.ar    1  UNL1        0.1395
      9 C         139.9418  140.0033  165.8700 C.ar    1  UNL1        0.0263
     10 C         140.3335  139.1632  164.6905 C.ar    1  UNL1        0.0560
     11 S         140.4569  140.9323  168.2409 S.O2    1  UNL1        0.0083
     12 O         141.3618  142.0280  167.7610 O.2     1  UNL1       -0.1686
     13 O         139.5519  139.8365  168.7208 O.2     1  UNL1       -0.1686
     14 C         140.0652  141.7723  169.4204 C.3     1  UNL1        0.1152
     15 C         140.7988  142.9407  168.8318 C.3     1  UNL1        0.0240
     16 C         139.3315  140.6038  170.0090 C.3     1  UNL1        0.0240
     17 C         139.6735  142.6123  170.5998 C.3     1  UNL1        0.0240
     18 N         138.1283  139.8252  163.4868 N.pl3   1  UNL1       -0.2004
     19 H         137.3305  139.4362  163.9128 H       1  UNL1        0.2982
     20 C         138.2611  145.0417  162.6796 C.3     1  UNL1        0.0519
     21 C         138.1064  143.5668  162.4545 C.2     1  UNL1        0.0948
     22 N         137.7289  142.9071  161.1613 N.2     1  UNL1       -0.0428
     23 N         137.6912  141.4252  161.3906 N.2     1  UNL1        0.0753
     24 C         138.0453  141.1690  162.8255 C.2     1  UNL1        0.3331
     25 C         138.3019  142.4926  163.4830 C.3     1  UNL1        0.1480
     26 C         138.6865  142.7048  164.9172 C.3     1  UNL1        0.0190
     27 O         143.0537  139.4303  168.2653 O.3     1  UNL1       -0.4714
     28 C         142.6305  138.8359  169.5758 C.3     1  UNL1        0.2370
     29 C         142.8366  139.6026  170.8485 C.3     1  UNL1        0.1847
     30 O         144.1348  139.4884  171.5911 O.3     1  UNL1       -0.3784
     31 H         144.2361  138.5844  171.9280 H       1  UNL1        0.2106
@<TRIPOS>BOND
     1    20    21    1
     2    21    22    2
     3    22    23    1
     4    23    24    2
     5    24    18    1
     6    18     1    1
     7     1     2   ar
     8     2     3   ar
     9     3     4   ar
    10     4     5   ar
    11     5     6   ar
    12     6     7   ar
    13     7    27    1
    14    27    28    1
    15    28    29    1
    16    29    30    1
    17     7     8   ar
    18     8    11    1
    19    11    12    2
    20    11    13    2
    21    11    14    1
    22    14    15    1
    23    14    16    1
    24    14    17    1
    25     8     9   ar
    26     9    10   ar
    27    24    25    1
    28    25    26    1
    29    25    21    1
    30    10     1   ar
    31    10     5   ar
    32    18    19    1
    33    30    31    1
@<TRIPOS>MOLECULE
*****
 31 33 0 0 0
SMALL
GASTEIGER

@<TRIPOS>ATOM
      1 C         138.0042  139.9718  162.9052 C.ar    1  UNL1        0.1384
      2 C         137.6962  139.1935  161.6605 C.ar    1  UNL1        0.0608
      3 C         138.5695  138.0412  161.2611 C.ar    1  UNL1        0.1023
      4 N         139.7508  137.6672  162.1065 N.ar    1  UNL1       -0.2435
      5 C         140.0588  138.4455  163.3512 C.ar    1  UNL1        0.0877
      6 C         141.2401  138.0716  164.1965 C.ar    1  UNL1        0.0574
      7 C         141.5481  138.8499  165.4412 C.ar    1  UNL1        0.1571
      8 C         140.6748  140.0022  165.8406 C.ar    1  UNL1        0.1395
      9 C         139.4935  140.3762  164.9953 C.ar    1  UNL1        0.0263
     10 C         139.1855  139.5978  163.7505 C.ar    1  UNL1        0.0560
     11 S         140.9828  140.7806  167.0853 S.O2    1  UNL1        0.0083
     12 O         140.0788  139.8791  167.8727 O.2     1  UNL1       -0.1686
     13 O         141.8868  141.6820  166.2979 O.2     1  UNL1       -0.1686
     14 C         141.2909  141.5589  168.3301 C.3     1  UNL1        0.1152
     15 C         139.9929  141.1091  168.9325 C.3     1  UNL1        0.0240
     16 C         142.5888  142.0088  167.7276 C.3     1  UNL1        0.0240
     17 C         141.5989  142.3373  169.5747 C.3     1  UNL1        0.0240
     18 N         137.1308  141.1241  163.3046 N.pl3   1  UNL1       -0.2004
     19 H         136.1801  140.9730  163.5105 H       1  UNL1        0.2982
     20 C         139.4788  145.6750  162.0170 C.3     1  UNL1        0.0519
     21 C         138.7855  144.5986  162.7984 C.2     1  UNL1        0.0948
     22 N         138.3978  144.6703  164.2457 N.2     1  UNL1       -0.0428
     23 N         137.7307  143.3774  164.6114 N.2     1  UNL1        0.0753
     24 C         137.7062  142.5068  163.3902 C.2     1  UNL1        0.3331
     25 C         138.3581  143.2615  162.2698 C.3     1  UNL1        0.1480
     26 C         138.5490  142.7661  160.8668 C.3     1  UNL1        0.0190
     27 O         142.7295  138.4759  166.2866 O.3     1  UNL1       -0.4714
     28 C         144.1192  138.6311  165.7440 C.3     1  UNL1        0.2370
     29 C         144.4030  139.6627  164.6927 C.3     1  UNL1        0.1847
     30 O         144.8645  139.2378  163.3302 O.3     1  UNL1       -0.3784
     31 H         145.7420  138.8301  163.3986 H       1  UNL1        0.2106
@<TRIPOS>BOND
     1    20    21    1
     2    21    22    2
     3    22    23    1
     4    23    24    2
     5    24    18    1
     6    18     1    1
     7     1     2   ar
     8     2     3   ar
     9     3     4   ar
    10     4     5   ar
    11     5     6   ar
    12     6     7   ar
    13     7    27    1
    14    27    28    1
    15    28    29    1
    16    29    30    1
    17     7     8   ar
    18     8    11    1
    19    11    12    2
    20    11    13    2
    21    11    14    1
    22    14    15    1
    23    14    16    1
    24    14    17    1
    25     8     9   ar
    26     9    10   ar
    27    24    25    1
    28    25    26    1
    29    25    21    1
    30    10     1   ar
    31    10     5   ar
    32    18    19    1
    33    30    31    1
@<TRIPOS>MOLECULE
*****
 31 33 0 0 0
SMALL
GASTEIGER

@<TRIPOS>ATOM
      1 C         139.0358  143.0369  163.6715 C.ar    1  UNL1        0.1384
      2 C         138.1552  142.5490  162.5596 C.ar    1  UNL1        0.0608
      3 C         137.4893  141.2089  162.6634 C.ar    1  UNL1        0.1023
      4 N         137.7040  140.3568  163.8790 N.ar    1  UNL1       -0.2435
      5 C         138.5847  140.8447  164.9909 C.ar    1  UNL1        0.0877
      6 C         138.7994  139.9926  166.2065 C.ar    1  UNL1        0.0574
      7 C         139.6800  140.4805  167.3184 C.ar    1  UNL1        0.1571
      8 C         140.3460  141.8206  167.2147 C.ar    1  UNL1        0.1395
      9 C         140.1312  142.6727  165.9991 C.ar    1  UNL1        0.0263
     10 C         139.2505  142.1847  164.8872 C.ar    1  UNL1        0.0560
     11 S         141.2266  142.3085  168.3266 S.O2    1  UNL1        0.0083
     12 O         140.1487  143.2549  168.7650 O.2     1  UNL1       -0.1686
     13 O         142.3046  141.3621  167.8882 O.2     1  UNL1       -0.1686
     14 C         142.1074  142.7964  169.4386 C.3     1  UNL1        0.1152
     15 C         143.2144  141.9095  168.9508 C.3     1  UNL1        0.0240
     16 C         141.0003  143.6833  169.9263 C.3     1  UNL1        0.0240
     17 C         142.9881  143.2843  170.5504 C.3     1  UNL1        0.0240
     18 N         139.7017  144.3770  163.5678 N.pl3   1  UNL1       -0.2004
     19 H         140.0064  144.8396  164.3817 H       1  UNL1        0.2982
     20 C         141.5213  145.3954  158.7168 C.3     1  UNL1        0.0519
     21 C         140.7398  145.4804  159.9942 C.2     1  UNL1        0.0948
     22 N         139.6878  146.4994  160.3181 N.2     1  UNL1       -0.0428
     23 N         139.1709  146.2101  161.6962 N.2     1  UNL1        0.0753
     24 C         139.9034  145.0123  162.2241 C.2     1  UNL1        0.3331
     25 C         140.8730  144.5613  161.1722 C.3     1  UNL1        0.1480
     26 C         141.8113  143.3959  161.2794 C.3     1  UNL1        0.0190
     27 O         139.8948  139.6283  168.5340 O.3     1  UNL1       -0.4714
     28 C         139.4571  140.1204  169.8817 C.3     1  UNL1        0.2370
     29 C         140.2789  139.8086  171.0972 C.3     1  UNL1        0.1847
     30 O         140.6444  140.9026  172.0562 O.3     1  UNL1       -0.3784
     31 H         141.2367  141.5329  171.6171 H       1  UNL1        0.2106
@<TRIPOS>BOND
     1    20    21    1
     2    21    22    2
     3    22    23    1
     4    23    24    2
     5    24    18    1
     6    18     1    1
     7     1     2   ar
     8     2     3   ar
     9     3     4   ar
    10     4     5   ar
    11     5     6   ar
    12     6     7   ar
    13     7    27    1
    14    27    28    1
    15    28    29    1
    16    29    30    1
    17     7     8   ar
    18     8    11    1
    19    11    12    2
    20    11    13    2
    21    11    14    1
    22    14    15    1
    23    14    16    1
    24    14    17    1
    25     8     9   ar
    26     9    10   ar
    27    24    25    1
    28    25    26    1
    29    25    21    1
    30    10     1   ar
    31    10     5   ar
    32    18    19    1
    33    30    31    1
@<TRIPOS>MOLECULE
*****
 31 33 0 0 0
SMALL
GASTEIGER

@<TRIPOS>ATOM
      1 C         139.1284  143.6997  163.3585 C.ar    1  UNL1        0.1384
      2 C         138.7408  144.9756  162.6718 C.ar    1  UNL1        0.0608
      3 C         139.7863  146.0023  162.3511 C.ar    1  UNL1        0.1023
      4 N         141.2194  145.7530  162.7171 N.ar    1  UNL1       -0.2435
      5 C         141.6071  144.4770  163.4037 C.ar    1  UNL1        0.0877
      6 C         143.0402  144.2277  163.7697 C.ar    1  UNL1        0.0574
      7 C         143.4279  142.9518  164.4564 C.ar    1  UNL1        0.1571
      8 C         142.3824  141.9250  164.7772 C.ar    1  UNL1        0.1395
      9 C         140.9492  142.1743  164.4112 C.ar    1  UNL1        0.0263
     10 C         140.5616  143.4504  163.7245 C.ar    1  UNL1        0.0560
     11 S         142.7700  140.6491  165.4639 S.O2    1  UNL1        0.0083
     12 O         142.6426  141.3271  166.7957 O.2     1  UNL1       -0.1686
     13 O         142.8974  139.9710  164.1320 O.2     1  UNL1       -0.1686
     14 C         143.1577  139.3730  166.1505 C.3     1  UNL1        0.1152
     15 C         142.5826  139.8900  167.4358 C.3     1  UNL1        0.0240
     16 C         143.7329  138.8560  164.8653 C.3     1  UNL1        0.0240
     17 C         143.5454  138.0970  166.8372 C.3     1  UNL1        0.0240
     18 N         138.0829  142.6729  163.6792 N.pl3   1  UNL1       -0.2004
     19 H         137.4965  142.7950  164.4605 H       1  UNL1        0.2982
     20 C         137.9446  137.6566  162.0365 C.3     1  UNL1        0.0519
     21 C         137.8674  139.1545  162.0544 C.2     1  UNL1        0.0948
     22 N         137.5268  140.0339  160.8879 N.2     1  UNL1       -0.0428
     23 N         137.5661  141.4589  161.3546 N.2     1  UNL1        0.0753
     24 C         137.9310  141.4603  162.8095 C.2     1  UNL1        0.3331
     25 C         138.1171  140.0361  163.2420 C.3     1  UNL1        0.1480
     26 C         138.4880  139.5745  164.6202 C.3     1  UNL1        0.0190
     27 O         144.8610  142.7024  164.8224 O.3     1  UNL1       -0.4714
     28 C         145.7561  141.9528  163.8807 C.3     1  UNL1        0.2370
     29 C         145.3234  141.7147  162.4643 C.3     1  UNL1        0.1847
     30 O         144.9562  140.3316  162.0148 O.3     1  UNL1       -0.3784
     31 H         145.7419  139.7634  162.0422 H       1  UNL1        0.2106
@<TRIPOS>BOND
     1    20    21    1
     2    21    22    2
     3    22    23    1
     4    23    24    2
     5    24    18    1
     6    18     1    1
     7     1     2   ar
     8     2     3   ar
     9     3     4   ar
    10     4     5   ar
    11     5     6   ar
    12     6     7   ar
    13     7    27    1
    14    27    28    1
    15    28    29    1
    16    29    30    1
    17     7     8   ar
    18     8    11    1
    19    11    12    2
    20    11    13    2
    21    11    14    1
    22    14    15    1
    23    14    16    1
    24    14    17    1
    25     8     9   ar
    26     9    10   ar
    27    24    25    1
    28    25    26    1
    29    25    21    1
    30    10     1   ar
    31    10     5   ar
    32    18    19    1
    33    30    31    1
@<TRIPOS>MOLECULE
*****
 31 33 0 0 0
SMALL
GASTEIGER

@<TRIPOS>ATOM
      1 C         139.8532  139.1278  164.6981 C.ar    1  UNL1        0.1384
      2 C         140.2396  137.6963  164.9252 C.ar    1  UNL1        0.0608
      3 C         141.3161  137.0686  164.0903 C.ar    1  UNL1        0.1023
      4 N         142.0061  137.8722  163.0282 N.ar    1  UNL1       -0.2435
      5 C         141.6196  139.3037  162.8011 C.ar    1  UNL1        0.0877
      6 C         142.3097  140.1073  161.7390 C.ar    1  UNL1        0.0574
      7 C         141.9232  141.5387  161.5118 C.ar    1  UNL1        0.1571
      8 C         140.8467  142.1666  162.3468 C.ar    1  UNL1        0.1395
      9 C         140.1567  141.3629  163.4088 C.ar    1  UNL1        0.0263
     10 C         140.5432  139.9314  163.6360 C.ar    1  UNL1        0.0560
     11 S         140.4603  143.5980  162.1196 S.O2    1  UNL1        0.0083
     12 O         139.5476  143.1750  161.0070 O.2     1  UNL1       -0.1686
     13 O         141.3730  144.0210  163.2322 O.2     1  UNL1       -0.1686
     14 C         140.0739  145.0295  161.8925 C.3     1  UNL1        0.1152
     15 C         140.7531  145.0007  160.5554 C.3     1  UNL1        0.0240
     16 C         139.3947  145.0584  163.2295 C.3     1  UNL1        0.0240
     17 C         139.6875  146.4610  161.6653 C.3     1  UNL1        0.0240
     18 N         138.7767  139.7556  165.5330 N.pl3   1  UNL1       -0.2004
     19 H         137.9336  140.0433  165.1140 H       1  UNL1        0.2982
     20 C         140.5170  141.6069  170.1617 C.3     1  UNL1        0.0519
     21 C         139.7848  140.7960  169.1340 C.2     1  UNL1        0.0948
     22 N         138.8256  139.6771  169.4134 N.2     1  UNL1       -0.0428
     23 N         138.3313  139.1512  168.0984 N.2     1  UNL1        0.0753
     24 C         138.9849  139.9450  167.0064 C.2     1  UNL1        0.3331
     25 C         139.8832  140.9616  167.6464 C.3     1  UNL1        0.1480
     26 C         140.7311  141.9672  166.9254 C.3     1  UNL1        0.0190
     27 O         142.6132  142.3424  160.4497 O.3     1  UNL1       -0.4714
     28 C         144.0114  142.8374  160.6734 C.3     1  UNL1        0.2370
     29 C         144.4388  143.2855  162.0396 C.3     1  UNL1        0.1847
     30 O         144.1661  144.6909  162.4873 O.3     1  UNL1       -0.3784
     31 H         144.6814  145.3087  161.9453 H       1  UNL1        0.2106
@<TRIPOS>BOND
     1    20    21    1
     2    21    22    2
     3    22    23    1
     4    23    24    2
     5    24    18    1
     6    18     1    1
     7     1     2   ar
     8     2     3   ar
     9     3     4   ar
    10     4     5   ar
    11     5     6   ar
    12     6     7   ar
    13     7    27    1
    14    27    28    1
    15    28    29    1
    16    29    30    1
    17     7     8   ar
    18     8    11    1
    19    11    12    2
    20    11    13    2
    21    11    14    1
    22    14    15    1
    23    14    16    1
    24    14    17    1
    25     8     9   ar
    26     9    10   ar
    27    24    25    1
    28    25    26    1
    29    25    21    1
    30    10     1   ar
    31    10     5   ar
    32    18    19    1
    33    30    31    1
@<TRIPOS>MOLECULE
*****
 31 33 0 0 0
SMALL
GASTEIGER

@<TRIPOS>ATOM
      1 C         142.9314  140.8590  166.1116 C.ar    1  UNL1        0.1384
      2 C         143.3687  139.5277  166.6467 C.ar    1  UNL1        0.0608
      3 C         143.0065  138.2696  165.9147 C.ar    1  UNL1        0.1023
      4 N         142.2071  138.3427  164.6477 N.ar    1  UNL1       -0.2435
      5 C         141.7698  139.6740  164.1126 C.ar    1  UNL1        0.0877
      6 C         140.9703  139.7472  162.8455 C.ar    1  UNL1        0.0574
      7 C         140.5330  141.0785  162.3104 C.ar    1  UNL1        0.1571
      8 C         140.8952  142.3367  163.0424 C.ar    1  UNL1        0.1395
      9 C         141.6946  142.2636  164.3095 C.ar    1  UNL1        0.0263
     10 C         142.1319  140.9322  164.8446 C.ar    1  UNL1        0.0560
     11 S         140.4579  143.6680  162.5073 S.O2    1  UNL1        0.0083
     12 O         141.7428  143.7824  161.7419 O.2     1  UNL1       -0.1686
     13 O         139.1730  143.5536  163.2727 O.2     1  UNL1       -0.1686
     14 C         140.0205  144.9994  161.9722 C.3     1  UNL1        0.1152
     15 C         141.0698  144.9145  160.9037 C.3     1  UNL1        0.0240
     16 C         138.9712  145.0842  163.0407 C.3     1  UNL1        0.0240
     17 C         139.5832  146.3307  161.4371 C.3     1  UNL1        0.0240
     18 N         143.2936  142.1173  166.8436 N.pl3   1  UNL1       -0.2004
     19 H         143.9269  142.7553  166.4423 H       1  UNL1        0.2982
     20 C         139.7814  142.9614  170.6950 C.3     1  UNL1        0.0519
     21 C         141.0764  142.7913  169.9573 C.2     1  UNL1        0.0948
     22 N         142.4498  142.8959  170.5514 N.2     1  UNL1       -0.0428
     23 N         143.4475  142.6561  169.4573 N.2     1  UNL1        0.0753
     24 C         142.6908  142.4033  168.1870 C.2     1  UNL1        0.3331
     25 C         141.2253  142.4870  168.4961 C.3     1  UNL1        0.1480
     26 C         140.1054  142.2992  167.5160 C.3     1  UNL1        0.0190
     27 O         139.7335  141.1516  161.0433 O.3     1  UNL1       -0.4714
     28 C         138.2473  140.9523  161.0817 C.3     1  UNL1        0.2370
     29 C         137.5801  140.5285  162.3565 C.3     1  UNL1        0.1847
     30 O         136.7345  141.5038  163.1206 O.3     1  UNL1       -0.3784
     31 H         137.2938  142.2198  163.4603 H       1  UNL1        0.2106
@<TRIPOS>BOND
     1    20    21    1
     2    21    22    2
     3    22    23    1
     4    23    24    2
     5    24    18    1
     6    18     1    1
     7     1     2   ar
     8     2     3   ar
     9     3     4   ar
    10     4     5   ar
    11     5     6   ar
    12     6     7   ar
    13     7    27    1
    14    27    28    1
    15    28    29    1
    16    29    30    1
    17     7     8   ar
    18     8    11    1
    19    11    12    2
    20    11    13    2
    21    11    14    1
    22    14    15    1
    23    14    16    1
    24    14    17    1
    25     8     9   ar
    26     9    10   ar
    27    24    25    1
    28    25    26    1
    29    25    21    1
    30    10     1   ar
    31    10     5   ar
    32    18    19    1
    33    30    31    1
@<TRIPOS>MOLECULE
*****
 31 33 0 0 0
SMALL
GASTEIGER

@<TRIPOS>ATOM
      1 C         139.9420  140.6616  166.3960 C.ar    1  UNL1        0.1384
      2 C         140.3191  139.9207  167.6445 C.ar    1  UNL1        0.0608
      3 C         141.6826  140.1035  168.2422 C.ar    1  UNL1        0.1023
      4 N         142.6691  141.0273  167.5914 N.ar    1  UNL1       -0.2435
      5 C         142.2921  141.7681  166.3429 C.ar    1  UNL1        0.0877
      6 C         143.2785  142.6918  165.6920 C.ar    1  UNL1        0.0574
      7 C         142.9015  143.4327  164.4435 C.ar    1  UNL1        0.1571
      8 C         141.5379  143.2499  163.8457 C.ar    1  UNL1        0.1395
      9 C         140.5514  142.3262  164.4966 C.ar    1  UNL1        0.0263
     10 C         140.9285  141.5853  165.7452 C.ar    1  UNL1        0.0560
     11 S         141.1608  143.9908  162.5972 S.O2    1  UNL1        0.0083
     12 O         140.8657  145.2147  163.4126 O.2     1  UNL1       -0.1686
     13 O         141.4560  142.7669  161.7818 O.2     1  UNL1       -0.1686
     14 C         140.7838  144.7316  161.3485 C.3     1  UNL1        0.1152
     15 C         140.0184  145.7263  162.1699 C.3     1  UNL1        0.0240
     16 C         141.5491  143.7370  160.5272 C.3     1  UNL1        0.0240
     17 C         140.4067  145.4725  160.1000 C.3     1  UNL1        0.0240
     18 N         138.5784  140.4787  165.7982 N.pl3   1  UNL1       -0.2004
     19 H         137.7846  140.8215  166.2690 H       1  UNL1        0.2982
     20 C         137.4057  139.4652  160.7506 C.3     1  UNL1        0.0519
     21 C         137.8853  139.3077  162.1631 C.2     1  UNL1        0.0948
     22 N         138.4893  138.0695  162.7564 N.2     1  UNL1       -0.0428
     23 N         138.8225  138.3574  164.1903 N.2     1  UNL1        0.0753
     24 C         138.4244  139.7737  164.4833 C.2     1  UNL1        0.3331
     25 C         137.8452  140.3610  163.2304 C.3     1  UNL1        0.1480
     26 C         137.3184  141.7565  163.0726 C.3     1  UNL1        0.0190
     27 O         143.8880  144.3564  163.7926 O.3     1  UNL1       -0.4714
     28 C         144.6675  143.8986  162.5957 C.3     1  UNL1        0.2370
     29 C         144.9986  142.4453  162.4274 C.3     1  UNL1        0.1847
     30 O         146.2605  141.8902  163.0185 O.3     1  UNL1       -0.3784
     31 H         147.0268  142.2840  162.5729 H       1  UNL1        0.2106
@<TRIPOS>BOND
     1    20    21    1
     2    21    22    2
     3    22    23    1
     4    23    24    2
     5    24    18    1
     6    18     1    1
     7     1     2   ar
     8     2     3   ar
     9     3     4   ar
    10     4     5   ar
    11     5     6   ar
    12     6     7   ar
    13     7    27    1
    14    27    28    1
    15    28    29    1
    16    29    30    1
    17     7     8   ar
    18     8    11    1
    19    11    12    2
    20    11    13    2
    21    11    14    1
    22    14    15    1
    23    14    16    1
    24    14    17    1
    25     8     9   ar
    26     9    10   ar
    27    24    25    1
    28    25    26    1
    29    25    21    1
    30    10     1   ar
    31    10     5   ar
    32    18    19    1
    33    30    31    1
