@<TRIPOS>MOLECULE
*****
 30 33 0 0 0
SMALL
GASTEIGER

@<TRIPOS>ATOM
      1 C         139.7612  138.3423  162.5808 C.ar    1  UNL1        0.0853
      2 C         141.0610  137.5942  162.6053 C.ar    1  UNL1        0.1045
      3 N         141.9804  137.7263  163.7831 N.ar    1  UNL1       -0.2435
      4 C         141.5999  138.6065  164.9365 C.ar    1  UNL1        0.0847
      5 C         142.5193  138.7386  166.1144 C.ar    1  UNL1        0.0488
      6 C         142.1388  139.6188  167.2678 C.ar    1  UNL1        0.1416
      7 F         143.0582  139.7508  168.4456 F       1  UNL1       -0.2041
      8 C         140.8389  140.3670  167.2434 C.ar    1  UNL1        0.0291
      9 C         139.9195  140.2349  166.0655 C.ar    1  UNL1        0.0050
     10 C         140.3001  139.3546  164.9121 C.ar    1  UNL1        0.0311
     11 C         139.3807  139.2226  163.7342 C.ar    1  UNL1        0.0519
     12 C         140.4584  141.2472  168.3968 C.ar    1  UNL1        0.0213
     13 C         140.8724  142.6890  168.4085 C.ar    1  UNL1        0.0032
     14 C         140.4919  143.5692  169.5619 C.ar    1  UNL1        0.0207
     15 C         139.6975  143.0077  170.7037 C.ar    1  UNL1        0.0989
     16 N         139.2835  141.5661  170.6920 N.ar    1  UNL1       -0.2423
     17 C         139.6640  140.6858  169.5386 C.ar    1  UNL1        0.0989
     18 N         139.3882  138.3126  160.0098 N.am    1  UNL1       -0.3252
     19 C         138.8418  138.2103  161.4030 C.2     1  UNL1        0.2455
     20 O         137.3760  137.9758  161.6183 O.2     1  UNL1       -0.2703
     21 H         138.7848  138.2260  159.2368 H       1  UNL1        0.1453
     22 H         140.3503  138.4665  159.8685 H       1  UNL1        0.1453
     23 N         138.0808  139.9708  163.7098 N.pl3   1  UNL1       -0.3337
     24 H         137.2569  139.5367  164.0294 H       1  UNL1        0.1468
     25 C         138.0362  141.3802  163.1986 C.3     1  UNL1        0.0740
     26 C         137.7524  142.5116  164.1419 C.3     1  UNL1        0.0516
     27 C         137.7078  143.9210  163.6307 C.3     1  UNL1        0.1439
     28 O         137.9470  144.1993  162.1763 O.3     1  UNL1       -0.3537
     29 C         138.2307  143.0680  161.2330 C.3     1  UNL1        0.1439
     30 C         138.2753  141.6585  161.7442 C.3     1  UNL1        0.0516
@<TRIPOS>BOND
     1    18    19   am
     2    19    20    2
     3    19     1    1
     4     1     2   ar
     5     2     3   ar
     6     3     4   ar
     7     4     5   ar
     8     5     6   ar
     9     6     7    1
    10     6     8   ar
    11     8    12    1
    12    12    13   ar
    13    13    14   ar
    14    14    15   ar
    15    15    16   ar
    16    16    17   ar
    17     8     9   ar
    18     9    10   ar
    19    10    11   ar
    20    11    23    1
    21    23    25    1
    22    25    26    1
    23    26    27    1
    24    27    28    1
    25    28    29    1
    26    29    30    1
    27    11     1   ar
    28    30    25    1
    29    10     4   ar
    30    17    12   ar
    31    18    21    1
    32    18    22    1
    33    23    24    1
@<TRIPOS>MOLECULE
*****
 30 33 0 0 0
SMALL
GASTEIGER

@<TRIPOS>ATOM
      1 C         139.2089  143.8164  162.2117 C.ar    1  UNL1        0.0853
      2 C         138.0306  143.0293  161.7198 C.ar    1  UNL1        0.1045
      3 N         137.5487  141.8379  162.4934 N.ar    1  UNL1       -0.2435
      4 C         138.2451  141.4338  163.7590 C.ar    1  UNL1        0.0847
      5 C         137.7632  140.2425  164.5327 C.ar    1  UNL1        0.0488
      6 C         138.4596  139.8383  165.7982 C.ar    1  UNL1        0.1416
      7 F         137.9777  138.6470  166.5719 F       1  UNL1       -0.2041
      8 C         139.6379  140.6255  166.2902 C.ar    1  UNL1        0.0291
      9 C         140.1198  141.8169  165.5166 C.ar    1  UNL1        0.0050
     10 C         139.4233  142.2210  164.2509 C.ar    1  UNL1        0.0311
     11 C         139.9052  143.4123  163.4773 C.ar    1  UNL1        0.0519
     12 C         140.3342  140.2214  167.5558 C.ar    1  UNL1        0.0213
     13 C         141.7902  139.8616  167.5287 C.ar    1  UNL1        0.0032
     14 C         142.4866  139.4575  168.7943 C.ar    1  UNL1        0.0207
     15 C         141.7270  139.4131  170.0870 C.ar    1  UNL1        0.0989
     16 N         140.2711  139.7729  170.1141 N.ar    1  UNL1       -0.2423
     17 C         139.5746  140.1770  168.8485 C.ar    1  UNL1        0.0989
     18 N         139.8704  144.9143  159.9518 N.am    1  UNL1       -0.3252
     19 C         139.6908  145.0078  161.4381 C.2     1  UNL1        0.2455
     20 O         139.9930  146.2926  162.1506 O.2     1  UNL1       -0.2703
     21 H         140.1867  145.6962  159.4441 H       1  UNL1        0.1453
     22 H         139.6721  144.0710  159.4841 H       1  UNL1        0.1453
     23 N         141.0836  144.1995  163.9693 N.pl3   1  UNL1       -0.3337
     24 H         140.9428  145.0372  164.4669 H       1  UNL1        0.1468
     25 C         142.4763  143.7103  163.7031 C.3     1  UNL1        0.0740
     26 C         143.3124  143.1783  164.8292 C.3     1  UNL1        0.0516
     27 C         144.7052  142.6891  164.5630 C.3     1  UNL1        0.1439
     28 O         145.2619  142.7318  163.1708 O.3     1  UNL1       -0.3537
     29 C         144.4258  143.2638  162.0447 C.3     1  UNL1        0.1439
     30 C         143.0330  143.7530  162.3109 C.3     1  UNL1        0.0516
@<TRIPOS>BOND
     1    18    19   am
     2    19    20    2
     3    19     1    1
     4     1     2   ar
     5     2     3   ar
     6     3     4   ar
     7     4     5   ar
     8     5     6   ar
     9     6     7    1
    10     6     8   ar
    11     8    12    1
    12    12    13   ar
    13    13    14   ar
    14    14    15   ar
    15    15    16   ar
    16    16    17   ar
    17     8     9   ar
    18     9    10   ar
    19    10    11   ar
    20    11    23    1
    21    23    25    1
    22    25    26    1
    23    26    27    1
    24    27    28    1
    25    28    29    1
    26    29    30    1
    27    11     1   ar
    28    30    25    1
    29    10     4   ar
    30    17    12   ar
    31    18    21    1
    32    18    22    1
    33    23    24    1
@<TRIPOS>MOLECULE
*****
 30 33 0 0 0
SMALL
GASTEIGER

@<TRIPOS>ATOM
      1 C         142.5205  138.5521  162.6344 C.ar    1  UNL1        0.0853
      2 C         141.3851  137.6187  162.3351 C.ar    1  UNL1        0.1045
      3 N         140.2066  137.5502  163.2606 N.ar    1  UNL1       -0.2435
      4 C         140.1635  138.4151  164.4853 C.ar    1  UNL1        0.0847
      5 C         138.9851  138.3466  165.4108 C.ar    1  UNL1        0.0488
      6 C         138.9420  139.2116  166.6355 C.ar    1  UNL1        0.1416
      7 F         137.7635  139.1431  167.5610 F       1  UNL1       -0.2041
      8 C         140.0774  140.1450  166.9348 C.ar    1  UNL1        0.0291
      9 C         141.2559  140.2135  166.0094 C.ar    1  UNL1        0.0050
     10 C         141.2989  139.3485  164.7846 C.ar    1  UNL1        0.0311
     11 C         142.4774  139.4170  163.8591 C.ar    1  UNL1        0.0519
     12 C         140.0343  141.0099  168.1596 C.ar    1  UNL1        0.0213
     13 C         140.4337  142.4532  168.0730 C.ar    1  UNL1        0.0032
     14 C         140.3906  143.3181  169.2977 C.ar    1  UNL1        0.0207
     15 C         139.9481  142.7398  170.6091 C.ar    1  UNL1        0.0989
     16 N         139.5487  141.2966  170.6958 N.ar    1  UNL1       -0.2423
     17 C         139.5918  140.4316  169.4710 C.ar    1  UNL1        0.0989
     18 N         144.4391  137.3683  161.3431 N.am    1  UNL1       -0.3252
     19 C         143.6990  138.6206  161.7089 C.2     1  UNL1        0.2455
     20 O         144.1374  139.9414  161.1493 O.2     1  UNL1       -0.2703
     21 H         145.2126  137.4132  160.7357 H       1  UNL1        0.1453
     22 H         144.1514  136.5014  161.7104 H       1  UNL1        0.1453
     23 N         143.6128  140.3505  164.1584 N.pl3   1  UNL1       -0.3337
     24 H         144.4735  139.9929  164.4757 H       1  UNL1        0.1468
     25 C         143.4370  141.8287  163.9743 C.3     1  UNL1        0.0740
     26 C         144.2675  142.7882  164.7742 C.3     1  UNL1        0.0516
     27 C         144.0916  144.2664  164.5901 C.3     1  UNL1        0.1439
     28 O         143.0852  144.7852  163.6061 O.3     1  UNL1       -0.3537
     29 C         142.2547  143.8257  162.8063 C.3     1  UNL1        0.1439
     30 C         142.4306  142.3474  162.9904 C.3     1  UNL1        0.0516
@<TRIPOS>BOND
     1    18    19   am
     2    19    20    2
     3    19     1    1
     4     1     2   ar
     5     2     3   ar
     6     3     4   ar
     7     4     5   ar
     8     5     6   ar
     9     6     7    1
    10     6     8   ar
    11     8    12    1
    12    12    13   ar
    13    13    14   ar
    14    14    15   ar
    15    15    16   ar
    16    16    17   ar
    17     8     9   ar
    18     9    10   ar
    19    10    11   ar
    20    11    23    1
    21    23    25    1
    22    25    26    1
    23    26    27    1
    24    27    28    1
    25    28    29    1
    26    29    30    1
    27    11     1   ar
    28    30    25    1
    29    10     4   ar
    30    17    12   ar
    31    18    21    1
    32    18    22    1
    33    23    24    1
@<TRIPOS>MOLECULE
*****
 30 33 0 0 0
SMALL
GASTEIGER

@<TRIPOS>ATOM
      1 C         138.6997  141.8256  162.1612 C.ar    1  UNL1        0.0853
      2 C         137.9246  140.5555  162.3514 C.ar    1  UNL1        0.1045
      3 N         137.9498  139.8527  163.6764 N.ar    1  UNL1       -0.2435
      4 C         138.7500  140.4201  164.8111 C.ar    1  UNL1        0.0847
      5 C         138.7752  139.7173  166.1361 C.ar    1  UNL1        0.0488
      6 C         139.5754  140.2846  167.2709 C.ar    1  UNL1        0.1416
      7 F         139.6005  139.5819  168.5958 F       1  UNL1       -0.2041
      8 C         140.3505  141.5548  167.0808 C.ar    1  UNL1        0.0291
      9 C         140.3253  142.2575  165.7558 C.ar    1  UNL1        0.0050
     10 C         139.5250  141.6901  164.6210 C.ar    1  UNL1        0.0311
     11 C         139.4999  142.3929  163.2960 C.ar    1  UNL1        0.0519
     12 C         141.1507  142.1221  168.2155 C.ar    1  UNL1        0.0213
     13 C         142.6037  141.7765  168.3551 C.ar    1  UNL1        0.0032
     14 C         143.4039  142.3438  169.4899 C.ar    1  UNL1        0.0207
     15 C         142.7511  143.2567  170.4852 C.ar    1  UNL1        0.0989
     16 N         141.2982  143.6023  170.3456 N.ar    1  UNL1       -0.2423
     17 C         140.4979  143.0350  169.2108 C.ar    1  UNL1        0.0989
     18 N         138.4757  141.7425  159.5742 N.am    1  UNL1       -0.3252
     19 C         138.6745  142.5283  160.8363 C.2     1  UNL1        0.2455
     20 O         138.8481  144.0169  160.7734 O.2     1  UNL1       -0.2703
     21 H         138.4592  142.2038  158.7046 H       1  UNL1        0.1453
     22 H         138.3618  140.7655  159.6154 H       1  UNL1        0.1453
     23 N         140.2750  143.6630  163.1059 N.pl3   1  UNL1       -0.3337
     24 H         139.8171  144.5326  163.1644 H       1  UNL1        0.1468
     25 C         141.7477  143.6082  162.8266 C.3     1  UNL1        0.0740
     26 C         142.6316  144.7490  163.2359 C.3     1  UNL1        0.0516
     27 C         144.1044  144.6942  162.9565 C.3     1  UNL1        0.1439
     28 O         144.6932  143.4988  162.2679 O.3     1  UNL1       -0.3537
     29 C         143.8093  142.3581  161.8586 C.3     1  UNL1        0.1439
     30 C         142.3365  142.4128  162.1379 C.3     1  UNL1        0.0516
@<TRIPOS>BOND
     1    18    19   am
     2    19    20    2
     3    19     1    1
     4     1     2   ar
     5     2     3   ar
     6     3     4   ar
     7     4     5   ar
     8     5     6   ar
     9     6     7    1
    10     6     8   ar
    11     8    12    1
    12    12    13   ar
    13    13    14   ar
    14    14    15   ar
    15    15    16   ar
    16    16    17   ar
    17     8     9   ar
    18     9    10   ar
    19    10    11   ar
    20    11    23    1
    21    23    25    1
    22    25    26    1
    23    26    27    1
    24    27    28    1
    25    28    29    1
    26    29    30    1
    27    11     1   ar
    28    30    25    1
    29    10     4   ar
    30    17    12   ar
    31    18    21    1
    32    18    22    1
    33    23    24    1
@<TRIPOS>MOLECULE
*****
 30 33 0 0 0
SMALL
GASTEIGER

@<TRIPOS>ATOM
      1 C         142.0088  142.0387  169.7705 C.ar    1  UNL1        0.0853
      2 C         141.1383  141.5274  170.8799 C.ar    1  UNL1        0.1045
      3 N         139.9414  140.6802  170.5642 N.ar    1  UNL1       -0.2435
      4 C         139.6150  140.3444  169.1392 C.ar    1  UNL1        0.0847
      5 C         138.4180  139.4972  168.8236 C.ar    1  UNL1        0.0488
      6 C         138.0916  139.1614  167.3986 C.ar    1  UNL1        0.1416
      7 F         136.8946  138.3142  167.0830 F       1  UNL1       -0.2041
      8 C         138.9621  139.6728  166.2892 C.ar    1  UNL1        0.0291
      9 C         140.1591  140.5199  166.6048 C.ar    1  UNL1        0.0050
     10 C         140.4855  140.8557  168.0299 C.ar    1  UNL1        0.0311
     11 C         141.6824  141.7029  168.3455 C.ar    1  UNL1        0.0519
     12 C         138.6357  139.3369  164.8642 C.ar    1  UNL1        0.0213
     13 C         138.9323  137.9671  164.3296 C.ar    1  UNL1        0.0032
     14 C         138.6059  137.6313  162.9046 C.ar    1  UNL1        0.0207
     15 C         137.9828  138.6652  162.0141 C.ar    1  UNL1        0.0989
     16 N         137.6862  140.0350  162.5487 N.ar    1  UNL1       -0.2423
     17 C         138.0127  140.3708  163.9738 C.ar    1  UNL1        0.0989
     18 N         143.1533  143.8651  171.2213 N.am    1  UNL1       -0.3252
     19 C         143.2058  142.8859  170.0862 C.2     1  UNL1        0.2455
     20 O         144.4552  142.7540  169.2667 O.2     1  UNL1       -0.2703
     21 H         143.9389  144.4211  171.4284 H       1  UNL1        0.1453
     22 H         142.3333  143.9517  171.7591 H       1  UNL1        0.1453
     23 N         142.5529  142.2143  167.2361 N.pl3   1  UNL1       -0.3337
     24 H         142.6707  143.1835  167.1097 H       1  UNL1        0.1468
     25 C         143.2440  141.2489  166.3193 C.3     1  UNL1        0.0740
     26 C         143.2290  139.7808  166.6268 C.3     1  UNL1        0.0516
     27 C         143.9200  138.8155  165.7100 C.3     1  UNL1        0.1439
     28 O         144.6260  139.3181  164.4857 O.3     1  UNL1       -0.3537
     29 C         144.6410  140.7862  164.1782 C.3     1  UNL1        0.1439
     30 C         143.9500  141.7516  165.0950 C.3     1  UNL1        0.0516
@<TRIPOS>BOND
     1    18    19   am
     2    19    20    2
     3    19     1    1
     4     1     2   ar
     5     2     3   ar
     6     3     4   ar
     7     4     5   ar
     8     5     6   ar
     9     6     7    1
    10     6     8   ar
    11     8    12    1
    12    12    13   ar
    13    13    14   ar
    14    14    15   ar
    15    15    16   ar
    16    16    17   ar
    17     8     9   ar
    18     9    10   ar
    19    10    11   ar
    20    11    23    1
    21    23    25    1
    22    25    26    1
    23    26    27    1
    24    27    28    1
    25    28    29    1
    26    29    30    1
    27    11     1   ar
    28    30    25    1
    29    10     4   ar
    30    17    12   ar
    31    18    21    1
    32    18    22    1
    33    23    24    1
@<TRIPOS>MOLECULE
*****
 30 33 0 0 0
SMALL
GASTEIGER

@<TRIPOS>ATOM
      1 C         141.8396  144.4565  162.1430 C.ar    1  UNL1        0.0853
      2 C         143.3275  144.5323  162.3171 C.ar    1  UNL1        0.1045
      3 N         143.9630  144.0136  163.5729 N.ar    1  UNL1       -0.2435
      4 C         143.1107  143.4191  164.6546 C.ar    1  UNL1        0.0847
      5 C         143.7463  142.9005  165.9104 C.ar    1  UNL1        0.0488
      6 C         142.8940  142.3060  166.9921 C.ar    1  UNL1        0.1416
      7 F         143.5296  141.7873  168.2479 F       1  UNL1       -0.2041
      8 C         141.4060  142.2302  166.8181 C.ar    1  UNL1        0.0291
      9 C         140.7704  142.7488  165.5623 C.ar    1  UNL1        0.0050
     10 C         141.6228  143.3433  164.4805 C.ar    1  UNL1        0.0311
     11 C         140.9872  143.8620  163.2247 C.ar    1  UNL1        0.0519
     12 C         140.5537  141.6357  167.8997 C.ar    1  UNL1        0.0213
     13 C         140.3629  142.3707  169.1934 C.ar    1  UNL1        0.0032
     14 C         139.5106  141.7762  170.2751 C.ar    1  UNL1        0.0207
     15 C         138.8490  140.4468  170.0632 C.ar    1  UNL1        0.0989
     16 N         139.0398  139.7118  168.7697 N.ar    1  UNL1       -0.2423
     17 C         139.8921  140.3062  167.6879 C.ar    1  UNL1        0.0989
     18 N         141.9062  144.8181  159.5711 N.am    1  UNL1       -0.3252
     19 C         141.2040  144.9751  160.8872 C.2     1  UNL1        0.2455
     20 O         139.8662  145.6508  160.9476 O.2     1  UNL1       -0.2703
     21 H         141.4890  145.1585  158.7469 H       1  UNL1        0.1453
     22 H         142.7843  144.3746  159.5315 H       1  UNL1        0.1453
     23 N         139.4993  143.7862  163.0507 N.pl3   1  UNL1       -0.3337
     24 H         138.9356  144.5567  163.2911 H       1  UNL1        0.1468
     25 C         138.8701  142.5363  162.5103 C.3     1  UNL1        0.0740
     26 C         138.2949  141.5191  163.4509 C.3     1  UNL1        0.0516
     27 C         137.6658  140.2693  162.9106 C.3     1  UNL1        0.1439
     28 O         137.6117  140.0365  161.4297 O.3     1  UNL1       -0.3537
     29 C         138.1868  141.0537  160.4892 C.3     1  UNL1        0.1439
     30 C         138.8160  142.3036  161.0295 C.3     1  UNL1        0.0516
@<TRIPOS>BOND
     1    18    19   am
     2    19    20    2
     3    19     1    1
     4     1     2   ar
     5     2     3   ar
     6     3     4   ar
     7     4     5   ar
     8     5     6   ar
     9     6     7    1
    10     6     8   ar
    11     8    12    1
    12    12    13   ar
    13    13    14   ar
    14    14    15   ar
    15    15    16   ar
    16    16    17   ar
    17     8     9   ar
    18     9    10   ar
    19    10    11   ar
    20    11    23    1
    21    23    25    1
    22    25    26    1
    23    26    27    1
    24    27    28    1
    25    28    29    1
    26    29    30    1
    27    11     1   ar
    28    30    25    1
    29    10     4   ar
    30    17    12   ar
    31    18    21    1
    32    18    22    1
    33    23    24    1
@<TRIPOS>MOLECULE
*****
 30 33 0 0 0
SMALL
GASTEIGER

@<TRIPOS>ATOM
      1 C         140.1747  141.9193  169.0670 C.ar    1  UNL1        0.0853
      2 C         139.2812  141.0205  169.8693 C.ar    1  UNL1        0.1045
      3 N         138.6329  139.8338  169.2201 N.ar    1  UNL1       -0.2435
      4 C         138.8781  139.5459  167.7685 C.ar    1  UNL1        0.0847
      5 C         138.2298  138.3593  167.1193 C.ar    1  UNL1        0.0488
      6 C         138.4750  138.0714  165.6678 C.ar    1  UNL1        0.1416
      7 F         137.8267  136.8848  165.0185 F       1  UNL1       -0.2041
      8 C         139.3686  138.9703  164.8654 C.ar    1  UNL1        0.0291
      9 C         140.0169  140.1570  165.5147 C.ar    1  UNL1        0.0050
     10 C         139.7716  140.4448  166.9663 C.ar    1  UNL1        0.0311
     11 C         140.4199  141.6315  167.6155 C.ar    1  UNL1        0.0519
     12 C         139.6138  138.6825  163.4139 C.ar    1  UNL1        0.0213
     13 C         140.9853  138.2925  162.9478 C.ar    1  UNL1        0.0032
     14 C         141.2305  138.0046  161.4963 C.ar    1  UNL1        0.0207
     15 C         140.1043  138.1067  160.5108 C.ar    1  UNL1        0.0989
     16 N         138.7329  138.4967  160.9767 N.ar    1  UNL1       -0.2423
     17 C         138.4876  138.7846  162.4283 C.ar    1  UNL1        0.0989
     18 N         139.9761  144.1742  170.3421 N.am    1  UNL1       -0.3252
     19 C         140.8230  143.1060  169.7163 C.2     1  UNL1        0.2455
     20 O         142.3181  143.2244  169.7398 O.2     1  UNL1       -0.2703
     21 H         140.4016  144.9531  170.7682 H       1  UNL1        0.1453
     22 H         138.9948  144.0965  170.3267 H       1  UNL1        0.1453
     23 N         141.3134  142.5303  166.8132 N.pl3   1  UNL1       -0.3337
     24 H         142.2685  142.6049  167.0401 H       1  UNL1        0.1468
     25 C         140.7518  143.3154  165.6651 C.3     1  UNL1        0.0740
     26 C         141.5336  143.4452  164.3915 C.3     1  UNL1        0.0516
     27 C         140.9720  144.2303  163.2434 C.3     1  UNL1        0.1439
     28 O         139.6286  144.8857  163.3689 O.3     1  UNL1       -0.3537
     29 C         138.8468  144.7560  164.6424 C.3     1  UNL1        0.1439
     30 C         139.4084  143.9709  165.7906 C.3     1  UNL1        0.0516
@<TRIPOS>BOND
     1    18    19   am
     2    19    20    2
     3    19     1    1
     4     1     2   ar
     5     2     3   ar
     6     3     4   ar
     7     4     5   ar
     8     5     6   ar
     9     6     7    1
    10     6     8   ar
    11     8    12    1
    12    12    13   ar
    13    13    14   ar
    14    14    15   ar
    15    15    16   ar
    16    16    17   ar
    17     8     9   ar
    18     9    10   ar
    19    10    11   ar
    20    11    23    1
    21    23    25    1
    22    25    26    1
    23    26    27    1
    24    27    28    1
    25    28    29    1
    26    29    30    1
    27    11     1   ar
    28    30    25    1
    29    10     4   ar
    30    17    12   ar
    31    18    21    1
    32    18    22    1
    33    23    24    1
@<TRIPOS>MOLECULE
*****
 30 33 0 0 0
SMALL
GASTEIGER

@<TRIPOS>ATOM
      1 C         144.0251  139.7866  161.9796 C.ar    1  UNL1        0.0853
      2 C         144.7483  141.0996  161.9259 C.ar    1  UNL1        0.1045
      3 N         144.7208  142.0199  163.1101 N.ar    1  UNL1       -0.2435
      4 C         143.9700  141.6272  164.3479 C.ar    1  UNL1        0.0847
      5 C         143.9425  142.5475  165.5321 C.ar    1  UNL1        0.0488
      6 C         143.1918  142.1548  166.7698 C.ar    1  UNL1        0.1416
      7 F         143.1643  143.0752  167.9540 F       1  UNL1       -0.2041
      8 C         142.4685  140.8418  166.8235 C.ar    1  UNL1        0.0291
      9 C         142.4960  139.9214  165.6393 C.ar    1  UNL1        0.0050
     10 C         143.2468  140.3142  164.4015 C.ar    1  UNL1        0.0311
     11 C         143.2743  139.3939  163.2173 C.ar    1  UNL1        0.0519
     12 C         141.7178  140.4491  168.0613 C.ar    1  UNL1        0.0213
     13 C         142.4575  140.2190  169.3458 C.ar    1  UNL1        0.0032
     14 C         141.7068  139.8263  170.5836 C.ar    1  UNL1        0.0207
     15 C         140.2163  139.6637  170.5369 C.ar    1  UNL1        0.0989
     16 N         139.4766  139.8937  169.2525 N.ar    1  UNL1       -0.2423
     17 C         140.2274  140.2865  168.0146 C.ar    1  UNL1        0.0989
     18 N         143.9841  139.4288  159.4066 N.am    1  UNL1       -0.3252
     19 C         144.0526  138.8663  160.7954 C.2     1  UNL1        0.2455
     20 O         144.1485  137.3834  161.0000 O.2     1  UNL1       -0.2703
     21 H         144.0022  138.8248  158.6294 H       1  UNL1        0.1453
     22 H         143.9212  140.4021  159.2722 H       1  UNL1        0.1453
     23 N         142.5511  138.0808  163.2710 N.pl3   1  UNL1       -0.3337
     24 H         143.0324  137.2642  163.5368 H       1  UNL1        0.1468
     25 C         141.0944  138.0120  162.9196 C.3     1  UNL1        0.0740
     26 C         140.0753  137.7625  163.9917 C.3     1  UNL1        0.0516
     27 C         138.6187  137.6937  163.6403 C.3     1  UNL1        0.1439
     28 O         138.1811  137.8744  162.2170 O.3     1  UNL1       -0.3537
     29 C         139.2002  138.1238  161.1450 C.3     1  UNL1        0.1439
     30 C         140.6569  138.1927  161.4963 C.3     1  UNL1        0.0516
@<TRIPOS>BOND
     1    18    19   am
     2    19    20    2
     3    19     1    1
     4     1     2   ar
     5     2     3   ar
     6     3     4   ar
     7     4     5   ar
     8     5     6   ar
     9     6     7    1
    10     6     8   ar
    11     8    12    1
    12    12    13   ar
    13    13    14   ar
    14    14    15   ar
    15    15    16   ar
    16    16    17   ar
    17     8     9   ar
    18     9    10   ar
    19    10    11   ar
    20    11    23    1
    21    23    25    1
    22    25    26    1
    23    26    27    1
    24    27    28    1
    25    28    29    1
    26    29    30    1
    27    11     1   ar
    28    30    25    1
    29    10     4   ar
    30    17    12   ar
    31    18    21    1
    32    18    22    1
    33    23    24    1
@<TRIPOS>MOLECULE
*****
 30 33 0 0 0
SMALL
GASTEIGER

@<TRIPOS>ATOM
      1 C         140.4019  140.6623  168.0066 C.ar    1  UNL1        0.0853
      2 C         141.7334  140.8512  168.6709 C.ar    1  UNL1        0.1045
      3 N         142.8283  141.5897  167.9597 N.ar    1  UNL1       -0.2435
      4 C         142.5917  142.1391  166.5842 C.ar    1  UNL1        0.0847
      5 C         143.6867  142.8776  165.8730 C.ar    1  UNL1        0.0488
      6 C         143.4501  143.4271  164.4975 C.ar    1  UNL1        0.1416
      7 F         144.5451  144.1655  163.7863 F       1  UNL1       -0.2041
      8 C         142.1186  143.2381  163.8331 C.ar    1  UNL1        0.0291
      9 C         141.0236  142.4997  164.5443 C.ar    1  UNL1        0.0050
     10 C         141.2602  141.9502  165.9199 C.ar    1  UNL1        0.0311
     11 C         140.1653  141.2117  166.6311 C.ar    1  UNL1        0.0519
     12 C         141.8820  143.7876  162.4576 C.ar    1  UNL1        0.0213
     13 C         140.7648  144.7600  162.2203 C.ar    1  UNL1        0.0032
     14 C         140.5282  145.3095  160.8448 C.ar    1  UNL1        0.0207
     15 C         141.4088  144.8866  159.7065 C.ar    1  UNL1        0.0989
     16 N         142.5260  143.9142  159.9438 N.ar    1  UNL1       -0.2423
     17 C         142.7626  143.3646  161.3193 C.ar    1  UNL1        0.0989
     18 N         139.1505  140.0628  170.2031 N.am    1  UNL1       -0.3252
     19 C         139.3069  139.9238  168.7178 C.2     1  UNL1        0.2455
     20 O         138.3684  139.0465  167.9437 O.2     1  UNL1       -0.2703
     21 H         138.4319  139.5781  170.6699 H       1  UNL1        0.1453
     22 H         139.7665  140.6387  170.7112 H       1  UNL1        0.1453
     23 N         138.8337  141.0228  165.9667 N.pl3   1  UNL1       -0.3337
     24 H         138.0399  141.4907  166.3133 H       1  UNL1        0.1468
     25 C         138.7117  140.1210  164.7743 C.3     1  UNL1        0.0740
     26 C         139.2839  138.7351  164.8204 C.3     1  UNL1        0.0516
     27 C         139.1619  137.8333  163.6281 C.3     1  UNL1        0.1439
     28 O         138.4678  138.3173  162.3895 O.3     1  UNL1       -0.3537
     29 C         137.8956  139.7031  162.3434 C.3     1  UNL1        0.1439
     30 C         138.0176  140.6050  163.5358 C.3     1  UNL1        0.0516
@<TRIPOS>BOND
     1    18    19   am
     2    19    20    2
     3    19     1    1
     4     1     2   ar
     5     2     3   ar
     6     3     4   ar
     7     4     5   ar
     8     5     6   ar
     9     6     7    1
    10     6     8   ar
    11     8    12    1
    12    12    13   ar
    13    13    14   ar
    14    14    15   ar
    15    15    16   ar
    16    16    17   ar
    17     8     9   ar
    18     9    10   ar
    19    10    11   ar
    20    11    23    1
    21    23    25    1
    22    25    26    1
    23    26    27    1
    24    27    28    1
    25    28    29    1
    26    29    30    1
    27    11     1   ar
    28    30    25    1
    29    10     4   ar
    30    17    12   ar
    31    18    21    1
    32    18    22    1
    33    23    24    1
