@<TRIPOS>MOLECULE
*****
 32 35 0 0 0
SMALL
GASTEIGER

@<TRIPOS>ATOM
      1 C         138.4501  140.0639  163.9879 C.ar    1  UNL1       -0.0000
      2 C         138.5332  138.7851  163.2081 C.ar    1  UNL1       -0.0003
      3 C         138.2711  138.7889  161.7313 C.ar    1  UNL1       -0.0042
      4 C         137.9258  140.0714  161.0340 C.ar    1  UNL1       -0.0194
      5 C         137.8427  141.3501  161.8137 C.ar    1  UNL1       -0.0042
      6 C         138.1049  141.3463  163.2907 C.ar    1  UNL1       -0.0003
      7 C         141.4417  141.9323  171.0009 C.3     1  UNL1        0.1155
      8 N         140.7170  141.3813  169.8087 N.am    1  UNL1       -0.2702
      9 C         140.8824  141.8357  168.3888 C.3     1  UNL1        0.1206
     10 C         139.9673  141.0144  167.5297 C.ar    1  UNL1        0.0021
     11 C         139.7053  141.0182  166.0528 C.ar    1  UNL1       -0.0025
     12 C         138.7122  140.0601  165.4648 C.ar    1  UNL1       -0.0003
     13 C         137.9812  139.0981  166.3538 C.ar    1  UNL1        0.0001
     14 C         138.2433  139.0943  167.8307 C.ar    1  UNL1        0.0043
     15 C         139.2364  140.0524  168.4186 C.ar    1  UNL1        0.0512
     16 C         139.6997  140.2792  169.8271 C.2     1  UNL1        0.2491
     17 O         139.2284  139.5345  171.0410 O.2     1  UNL1       -0.2699
     18 C         137.6637  140.0751  159.5571 C.3     1  UNL1        0.0616
     19 C         138.7834  140.3493  158.5974 C.3     1  UNL1        0.1684
     20 N         139.7649  139.2661  158.2608 N.am    1  UNL1       -0.2925
     21 C         139.5956  138.4646  157.0043 C.2     1  UNL1        0.2374
     22 O         138.4448  138.7462  156.0843 O.2     1  UNL1       -0.2736
     23 H         140.5202  139.0812  158.8646 H       1  UNL1        0.1504
     24 C         140.5771  137.3813  156.6677 C.3     1  UNL1        0.1315
     25 C         141.9492  137.3978  157.2734 C.3     1  UNL1        0.0251
     26 C         142.9308  136.3146  156.9368 C.3     1  UNL1        0.0033
     27 C         142.5401  135.2148  155.9945 C.3     1  UNL1        0.0171
     28 C         141.1679  135.1984  155.3888 C.3     1  UNL1        0.0689
     29 N         140.1864  136.2816  155.7254 N.3     1  UNL1       -0.2913
     30 H         139.3697  135.8236  156.1297 H       1  UNL1        0.1236
     31 C         138.9216  141.7067  157.9742 C.1     1  UNL1        0.0927
     32 N         139.0598  143.0642  157.3511 N.1     1  UNL1       -0.1942
@<TRIPOS>BOND
     1     7     8    1
     2     8     9    1
     3     9    10    1
     4    10    11   ar
     5    11    12   ar
     6    12     1    1
     7     1     2   ar
     8     2     3   ar
     9     3     4   ar
    10     4    18    1
    11    19    18    1
    12    19    31    1
    13    31    32    3
    14    19    20    1
    15    20    21   am
    16    21    22    2
    17    24    21    1
    18    24    25    1
    19    25    26    1
    20    26    27    1
    21    27    28    1
    22    28    29    1
    23     4     5   ar
    24     5     6   ar
    25    12    13   ar
    26    13    14   ar
    27    14    15   ar
    28    15    16    1
    29    16    17    2
    30    16     8   am
    31    15    10   ar
    32     6     1   ar
    33    29    24    1
    34    20    23    1
    35    29    30    1
@<TRIPOS>MOLECULE
*****
 32 35 0 0 0
SMALL
GASTEIGER

@<TRIPOS>ATOM
      1 C         140.0817  139.2269  163.5696 C.ar    1  UNL1       -0.0000
      2 C         141.1638  140.0268  162.9071 C.ar    1  UNL1       -0.0003
      3 C         141.4582  139.8279  161.4498 C.ar    1  UNL1       -0.0042
      4 C         140.6704  138.8291  160.6550 C.ar    1  UNL1       -0.0194
      5 C         139.5882  138.0291  161.3175 C.ar    1  UNL1       -0.0042
      6 C         139.2938  138.2280  162.7749 C.ar    1  UNL1       -0.0003
      7 C         140.8049  141.5151  171.0439 C.3     1  UNL1        0.1155
      8 N         140.4196  140.9599  169.7047 N.am    1  UNL1       -0.2702
      9 C         141.2093  141.0897  168.4361 C.3     1  UNL1        0.1206
     10 C         140.4547  140.3874  167.3464 C.ar    1  UNL1        0.0021
     11 C         140.7490  140.1885  165.8891 C.ar    1  UNL1       -0.0025
     12 C         139.7873  139.4258  165.0270 C.ar    1  UNL1       -0.0003
     13 C         138.5312  138.8619  165.6222 C.ar    1  UNL1        0.0001
     14 C         138.2369  139.0608  167.0795 C.ar    1  UNL1        0.0043
     15 C         139.1986  139.8235  167.9416 C.ar    1  UNL1        0.0512
     16 C         139.1769  140.1774  169.3991 C.2     1  UNL1        0.2491
     17 O         138.1013  139.8126  170.3790 O.2     1  UNL1       -0.2699
     18 C         140.9647  138.6302  159.1977 C.3     1  UNL1        0.0616
     19 C         142.3804  138.4477  158.7366 C.3     1  UNL1        0.1684
     20 N         142.9084  137.0707  158.4628 N.am    1  UNL1       -0.2925
     21 C         142.6338  136.4106  157.1441 C.2     1  UNL1        0.2374
     22 O         141.8313  137.1275  156.0992 O.2     1  UNL1       -0.2736
     23 H         143.4351  136.6001  159.1486 H       1  UNL1        0.1504
     24 C         143.1619  135.0335  156.8703 C.3     1  UNL1        0.1315
     25 C         143.0097  134.4294  155.5059 C.3     1  UNL1        0.0251
     26 C         143.5378  133.0523  155.2321 C.3     1  UNL1        0.0033
     27 C         144.2180  132.2794  156.3229 C.3     1  UNL1        0.0171
     28 C         144.3702  132.8836  157.6875 C.3     1  UNL1        0.0689
     29 N         143.8422  134.2606  157.9611 N.3     1  UNL1       -0.2913
     30 H         144.6343  134.8235  158.2709 H       1  UNL1        0.1236
     31 C         143.2680  139.6422  158.5492 C.1     1  UNL1        0.0927
     32 N         144.1557  140.8368  158.3618 N.1     1  UNL1       -0.1942
@<TRIPOS>BOND
     1     7     8    1
     2     8     9    1
     3     9    10    1
     4    10    11   ar
     5    11    12   ar
     6    12     1    1
     7     1     2   ar
     8     2     3   ar
     9     3     4   ar
    10     4    18    1
    11    19    18    1
    12    19    31    1
    13    31    32    3
    14    19    20    1
    15    20    21   am
    16    21    22    2
    17    24    21    1
    18    24    25    1
    19    25    26    1
    20    26    27    1
    21    27    28    1
    22    28    29    1
    23     4     5   ar
    24     5     6   ar
    25    12    13   ar
    26    13    14   ar
    27    14    15   ar
    28    15    16    1
    29    16    17    2
    30    16     8   am
    31    15    10   ar
    32     6     1   ar
    33    29    24    1
    34    20    23    1
    35    29    30    1
@<TRIPOS>MOLECULE
*****
 32 35 0 0 0
SMALL
GASTEIGER

@<TRIPOS>ATOM
      1 C         139.5425  139.6935  165.1887 C.ar    1  UNL1       -0.0000
      2 C         139.3447  138.2268  164.9445 C.ar    1  UNL1       -0.0003
      3 C         139.0152  137.7336  163.5668 C.ar    1  UNL1       -0.0042
      4 C         138.8833  138.7072  162.4332 C.ar    1  UNL1       -0.0194
      5 C         139.0811  140.1739  162.6774 C.ar    1  UNL1       -0.0042
      6 C         139.4107  140.6670  164.0552 C.ar    1  UNL1       -0.0003
      7 C         143.1117  143.4973  171.0551 C.3     1  UNL1        0.1155
      8 N         142.2570  142.6698  170.1415 N.am    1  UNL1       -0.2702
      9 C         142.4190  142.5450  168.6555 C.3     1  UNL1        0.1206
     10 C         141.3524  141.6199  168.1490 C.ar    1  UNL1        0.0021
     11 C         141.0228  141.1268  166.7712 C.ar    1  UNL1       -0.0025
     12 C         139.8721  140.1867  166.5665 C.ar    1  UNL1       -0.0003
     13 C         139.0509  139.7397  167.7394 C.ar    1  UNL1        0.0001
     14 C         139.3805  140.2328  169.1172 C.ar    1  UNL1        0.0043
     15 C         140.5312  141.1729  169.3219 C.ar    1  UNL1        0.0512
     16 C         141.0903  141.8218  170.5533 C.2     1  UNL1        0.2491
     17 O         140.5734  141.6523  171.9512 O.2     1  UNL1       -0.2699
     18 C         138.5537  138.2140  161.0555 C.3     1  UNL1        0.0616
     19 C         139.3201  138.7262  159.8722 C.3     1  UNL1        0.1684
     20 N         138.5874  139.2882  158.6902 N.am    1  UNL1       -0.2925
     21 C         138.1475  140.7222  158.6929 C.2     1  UNL1        0.2374
     22 O         138.4402  141.5943  159.8777 O.2     1  UNL1       -0.2736
     23 H         138.3953  138.7159  157.9125 H       1  UNL1        0.1504
     24 C         137.4147  141.2842  157.5108 C.3     1  UNL1        0.1315
     25 C         137.7801  142.6370  156.9757 C.3     1  UNL1        0.0251
     26 C         137.0474  143.1990  155.7936 C.3     1  UNL1        0.0033
     27 C         135.9492  142.4081  155.1466 C.3     1  UNL1        0.0171
     28 C         135.5838  141.0552  155.6818 C.3     1  UNL1        0.0689
     29 N         136.3166  140.4933  156.8638 N.3     1  UNL1       -0.2913
     30 H         136.7281  139.6100  156.5625 H       1  UNL1        0.1236
     31 C         140.8193  138.6765  159.8709 C.1     1  UNL1        0.0927
     32 N         142.3185  138.6266  159.8697 N.1     1  UNL1       -0.1942
@<TRIPOS>BOND
     1     7     8    1
     2     8     9    1
     3     9    10    1
     4    10    11   ar
     5    11    12   ar
     6    12     1    1
     7     1     2   ar
     8     2     3   ar
     9     3     4   ar
    10     4    18    1
    11    19    18    1
    12    19    31    1
    13    31    32    3
    14    19    20    1
    15    20    21   am
    16    21    22    2
    17    24    21    1
    18    24    25    1
    19    25    26    1
    20    26    27    1
    21    27    28    1
    22    28    29    1
    23     4     5   ar
    24     5     6   ar
    25    12    13   ar
    26    13    14   ar
    27    14    15   ar
    28    15    16    1
    29    16    17    2
    30    16     8   am
    31    15    10   ar
    32     6     1   ar
    33    29    24    1
    34    20    23    1
    35    29    30    1
@<TRIPOS>MOLECULE
*****
 32 35 0 0 0
SMALL
GASTEIGER

@<TRIPOS>ATOM
      1 C         139.4619  139.1966  163.6094 C.ar    1  UNL1       -0.0000
      2 C         138.6105  139.9705  162.6469 C.ar    1  UNL1       -0.0003
      3 C         138.7506  139.7427  161.1710 C.ar    1  UNL1       -0.0042
      4 C         139.7421  138.7410  160.6575 C.ar    1  UNL1       -0.0194
      5 C         140.5934  137.9671  161.6199 C.ar    1  UNL1       -0.0042
      6 C         140.4533  138.1949  163.0959 C.ar    1  UNL1       -0.0003
      7 C         140.7591  141.9223  170.8558 C.3     1  UNL1        0.1155
      8 N         140.2958  141.2556  169.5946 N.am    1  UNL1       -0.2702
      9 C         140.8994  141.4293  168.2324 C.3     1  UNL1        0.1206
     10 C         140.1242  140.5792  167.2700 C.ar    1  UNL1        0.0021
     11 C         140.2644  140.3514  165.7940 C.ar    1  UNL1       -0.0025
     12 C         139.3217  139.4244  165.0854 C.ar    1  UNL1       -0.0003
     13 C         138.2389  138.7253  165.8527 C.ar    1  UNL1        0.0001
     14 C         138.0988  138.9531  167.3287 C.ar    1  UNL1        0.0043
     15 C         139.0414  139.8800  168.0373 C.ar    1  UNL1        0.0512
     16 C         139.1475  140.2981  169.4739 C.2     1  UNL1        0.2491
     17 O         138.2609  139.8392  170.5934 O.2     1  UNL1       -0.2699
     18 C         139.8822  138.5132  159.1815 C.3     1  UNL1        0.0616
     19 C         139.7069  139.6563  158.2262 C.3     1  UNL1        0.1684
     20 N         138.4955  139.7172  157.3438 N.am    1  UNL1       -0.2925
     21 C         137.5709  140.8959  157.4196 C.2     1  UNL1        0.2374
     22 O         137.8577  142.0137  158.3778 O.2     1  UNL1       -0.2736
     23 H         138.3072  138.9836  156.7148 H       1  UNL1        0.1504
     24 C         136.3594  140.9568  156.5371 C.3     1  UNL1        0.1315
     25 C         136.3841  141.7832  155.2855 C.3     1  UNL1        0.0251
     26 C         135.1726  141.8441  154.4029 C.3     1  UNL1        0.0033
     27 C         133.9366  141.0786  154.7721 C.3     1  UNL1        0.0171
     28 C         133.9120  140.2523  156.0238 C.3     1  UNL1        0.0689
     29 N         135.1234  140.1914  156.9062 N.3     1  UNL1       -0.2913
     30 H         135.3928  139.2096  156.9691 H       1  UNL1        0.1236
     31 C         140.7430  140.7385  158.1534 C.1     1  UNL1        0.0927
     32 N         141.7791  141.8207  158.0806 N.1     1  UNL1       -0.1942
@<TRIPOS>BOND
     1     7     8    1
     2     8     9    1
     3     9    10    1
     4    10    11   ar
     5    11    12   ar
     6    12     1    1
     7     1     2   ar
     8     2     3   ar
     9     3     4   ar
    10     4    18    1
    11    19    18    1
    12    19    31    1
    13    31    32    3
    14    19    20    1
    15    20    21   am
    16    21    22    2
    17    24    21    1
    18    24    25    1
    19    25    26    1
    20    26    27    1
    21    27    28    1
    22    28    29    1
    23     4     5   ar
    24     5     6   ar
    25    12    13   ar
    26    13    14   ar
    27    14    15   ar
    28    15    16    1
    29    16    17    2
    30    16     8   am
    31    15    10   ar
    32     6     1   ar
    33    29    24    1
    34    20    23    1
    35    29    30    1
@<TRIPOS>MOLECULE
*****
 32 35 0 0 0
SMALL
GASTEIGER

@<TRIPOS>ATOM
      1 C         143.2695  138.9140  162.1058 C.ar    1  UNL1       -0.0000
      2 C         142.1676  138.1847  162.8157 C.ar    1  UNL1       -0.0003
      3 C         142.1729  138.0916  164.3128 C.ar    1  UNL1       -0.0042
      4 C         143.2800  138.7278  165.1000 C.ar    1  UNL1       -0.0194
      5 C         144.3818  139.4571  164.3900 C.ar    1  UNL1       -0.0042
      6 C         144.3765  139.5502  162.8929 C.ar    1  UNL1       -0.0003
      7 C         142.4107  136.9653  154.5501 C.3     1  UNL1        0.1155
      8 N         142.6598  137.5923  155.8898 N.am    1  UNL1       -0.2702
      9 C         142.4657  136.9316  157.2224 C.3     1  UNL1        0.1206
     10 C         142.8327  137.9211  158.2883 C.ar    1  UNL1        0.0021
     11 C         142.8380  137.8280  159.7853 C.ar    1  UNL1       -0.0025
     12 C         143.2642  139.0072  160.6086 C.ar    1  UNL1       -0.0003
     13 C         143.6851  140.2795  159.9348 C.ar    1  UNL1        0.0001
     14 C         143.6798  140.3726  158.4378 C.ar    1  UNL1        0.0043
     15 C         143.2536  139.1934  157.6145 C.ar    1  UNL1        0.0512
     16 C         143.1467  138.9902  156.1322 C.2     1  UNL1        0.2491
     17 O         143.4701  140.0065  155.0774 O.2     1  UNL1       -0.2699
     18 C         143.2852  138.6347  166.5970 C.3     1  UNL1        0.0616
     19 C         142.6461  139.7153  167.4180 C.3     1  UNL1        0.1684
     20 N         141.8756  140.8121  166.7448 N.am    1  UNL1       -0.2925
     21 C         140.4001  140.6629  166.5195 C.2     1  UNL1        0.2374
     22 O         139.6952  139.4169  166.9674 O.2     1  UNL1       -0.2736
     23 H         142.3382  141.6298  166.4508 H       1  UNL1        0.1504
     24 C         139.6295  141.7598  165.8463 C.3     1  UNL1        0.1315
     25 C         140.0041  143.1930  166.0817 C.3     1  UNL1        0.0251
     26 C         139.2335  144.2899  165.4084 C.3     1  UNL1        0.0033
     27 C         138.0884  143.9535  164.4998 C.3     1  UNL1        0.0171
     28 C         137.7139  142.5201  164.2644 C.3     1  UNL1        0.0689
     29 N         138.4845  141.4233  164.9376 N.3     1  UNL1       -0.2913
     30 H         138.8602  140.8304  164.1976 H       1  UNL1        0.1236
     31 C         142.7775  139.6990  168.9121 C.1     1  UNL1        0.0927
     32 N         142.9089  139.6828  170.4063 N.1     1  UNL1       -0.1942
@<TRIPOS>BOND
     1     7     8    1
     2     8     9    1
     3     9    10    1
     4    10    11   ar
     5    11    12   ar
     6    12     1    1
     7     1     2   ar
     8     2     3   ar
     9     3     4   ar
    10     4    18    1
    11    19    18    1
    12    19    31    1
    13    31    32    3
    14    19    20    1
    15    20    21   am
    16    21    22    2
    17    24    21    1
    18    24    25    1
    19    25    26    1
    20    26    27    1
    21    27    28    1
    22    28    29    1
    23     4     5   ar
    24     5     6   ar
    25    12    13   ar
    26    13    14   ar
    27    14    15   ar
    28    15    16    1
    29    16    17    2
    30    16     8   am
    31    15    10   ar
    32     6     1   ar
    33    29    24    1
    34    20    23    1
    35    29    30    1
@<TRIPOS>MOLECULE
*****
 32 35 0 0 0
SMALL
GASTEIGER

@<TRIPOS>ATOM
      1 C         142.2774  138.3173  162.0774 C.ar    1  UNL1       -0.0000
      2 C         143.4898  139.0562  162.5614 C.ar    1  UNL1       -0.0003
      3 C         143.7808  139.1391  164.0306 C.ar    1  UNL1       -0.0042
      4 C         142.8593  138.4831  165.0158 C.ar    1  UNL1       -0.0194
      5 C         141.6469  137.7442  164.5318 C.ar    1  UNL1       -0.0042
      6 C         141.3560  137.6614  163.0626 C.ar    1  UNL1       -0.0003
      7 C         138.6534  139.1796  155.1676 C.3     1  UNL1        0.1155
      8 N         139.5469  138.8776  156.3340 N.am    1  UNL1       -0.2702
      9 C         139.2908  139.2573  157.7623 C.3     1  UNL1        0.1206
     10 C         140.4390  138.7574  158.5880 C.ar    1  UNL1        0.0021
     11 C         140.7298  138.8403  160.0571 C.ar    1  UNL1       -0.0025
     12 C         141.9865  138.2345  160.6082 C.ar    1  UNL1       -0.0003
     13 C         142.9523  137.5458  159.6901 C.ar    1  UNL1        0.0001
     14 C         142.6615  137.4629  158.2209 C.ar    1  UNL1        0.0043
     15 C         141.4048  138.0687  157.6699 C.ar    1  UNL1        0.0512
     16 C         140.8535  138.1430  156.2768 C.2     1  UNL1        0.2491
     17 O         141.4959  137.5813  155.0433 O.2     1  UNL1       -0.2699
     18 C         143.1502  138.5660  166.4850 C.3     1  UNL1        0.0616
     19 C         142.5698  139.6815  167.3027 C.3     1  UNL1        0.1684
     20 N         141.8171  140.7911  166.6305 N.am    1  UNL1       -0.2925
     21 C         140.3252  140.7118  166.4965 C.2     1  UNL1        0.2374
     22 O         139.5860  139.5227  167.0348 O.2     1  UNL1       -0.2736
     23 H         142.3022  141.5715  166.2772 H       1  UNL1        0.1504
     24 C         139.5724  141.8215  165.8242 C.3     1  UNL1        0.1315
     25 C         138.4377  141.5034  164.8962 C.3     1  UNL1        0.0251
     26 C         137.6850  142.6132  164.2239 C.3     1  UNL1        0.0033
     27 C         138.0670  144.0410  164.4796 C.3     1  UNL1        0.0171
     28 C         139.2018  144.3591  165.4077 C.3     1  UNL1        0.0689
     29 N         139.9545  143.2493  166.0799 N.3     1  UNL1       -0.2913
     30 H         139.8684  143.4017  167.0848 H       1  UNL1        0.1236
     31 C         142.7421  139.6873  168.7928 C.1     1  UNL1        0.0927
     32 N         142.9144  139.6931  170.2829 N.1     1  UNL1       -0.1942
@<TRIPOS>BOND
     1     7     8    1
     2     8     9    1
     3     9    10    1
     4    10    11   ar
     5    11    12   ar
     6    12     1    1
     7     1     2   ar
     8     2     3   ar
     9     3     4   ar
    10     4    18    1
    11    19    18    1
    12    19    31    1
    13    31    32    3
    14    19    20    1
    15    20    21   am
    16    21    22    2
    17    24    21    1
    18    24    25    1
    19    25    26    1
    20    26    27    1
    21    27    28    1
    22    28    29    1
    23     4     5   ar
    24     5     6   ar
    25    12    13   ar
    26    13    14   ar
    27    14    15   ar
    28    15    16    1
    29    16    17    2
    30    16     8   am
    31    15    10   ar
    32     6     1   ar
    33    29    24    1
    34    20    23    1
    35    29    30    1
@<TRIPOS>MOLECULE
*****
 32 35 0 0 0
SMALL
GASTEIGER

@<TRIPOS>ATOM
      1 C         138.4324  140.1024  163.9658 C.ar    1  UNL1       -0.0000
      2 C         138.4208  138.8118  163.2015 C.ar    1  UNL1       -0.0003
      3 C         138.1335  138.8144  161.7293 C.ar    1  UNL1       -0.0042
      4 C         137.8577  140.1078  161.0213 C.ar    1  UNL1       -0.0194
      5 C         137.8693  141.3985  161.7855 C.ar    1  UNL1       -0.0042
      6 C         138.1567  141.3957  163.2578 C.ar    1  UNL1       -0.0003
      7 C         141.5211  141.9965  170.9296 C.3     1  UNL1        0.1155
      8 N         140.7827  141.4386  169.7492 N.am    1  UNL1       -0.2702
      9 C         140.9185  141.8968  168.3273 C.3     1  UNL1        0.1206
     10 C         139.9986  141.0660  167.4826 C.ar    1  UNL1        0.0021
     11 C         139.7113  141.0687  166.0105 C.ar    1  UNL1       -0.0025
     12 C         138.7197  140.0997  165.4380 C.ar    1  UNL1       -0.0003
     13 C         138.0154  139.1279  166.3378 C.ar    1  UNL1        0.0001
     14 C         138.3027  139.1252  167.8100 C.ar    1  UNL1        0.0043
     15 C         139.2943  140.0942  168.3824 C.ar    1  UNL1        0.0512
     16 C         139.7789  140.3245  169.7832 C.2     1  UNL1        0.2491
     17 O         139.3372  139.5727  171.0037 O.2     1  UNL1       -0.2699
     18 C         137.5704  140.1105  159.5491 C.3     1  UNL1        0.0616
     19 C         138.6884  140.2991  158.5671 C.3     1  UNL1        0.1684
     20 N         139.0503  141.6772  158.0983 N.am    1  UNL1       -0.2925
     21 C         138.1688  142.3912  157.1168 C.2     1  UNL1        0.2374
     22 O         136.9254  141.7270  156.6042 O.2     1  UNL1       -0.2736
     23 H         139.8664  142.1132  158.4347 H       1  UNL1        0.1504
     24 C         138.5308  143.7694  156.6480 C.3     1  UNL1        0.1315
     25 C         137.7801  144.3959  155.5105 C.3     1  UNL1        0.0251
     26 C         138.1420  145.7740  155.0417 C.3     1  UNL1        0.0033
     27 C         139.2547  146.5256  155.7104 C.3     1  UNL1        0.0171
     28 C         140.0053  145.8990  156.8480 C.3     1  UNL1        0.0689
     29 N         139.6434  144.5209  157.3167 N.3     1  UNL1       -0.2913
     30 H         139.3936  144.6013  158.3024 H       1  UNL1        0.1236
     31 C         139.4446  139.1097  158.0539 C.1     1  UNL1        0.0927
     32 N         140.2009  137.9203  157.5406 N.1     1  UNL1       -0.1942
@<TRIPOS>BOND
     1     7     8    1
     2     8     9    1
     3     9    10    1
     4    10    11   ar
     5    11    12   ar
     6    12     1    1
     7     1     2   ar
     8     2     3   ar
     9     3     4   ar
    10     4    18    1
    11    19    18    1
    12    19    31    1
    13    31    32    3
    14    19    20    1
    15    20    21   am
    16    21    22    2
    17    24    21    1
    18    24    25    1
    19    25    26    1
    20    26    27    1
    21    27    28    1
    22    28    29    1
    23     4     5   ar
    24     5     6   ar
    25    12    13   ar
    26    13    14   ar
    27    14    15   ar
    28    15    16    1
    29    16    17    2
    30    16     8   am
    31    15    10   ar
    32     6     1   ar
    33    29    24    1
    34    20    23    1
    35    29    30    1
@<TRIPOS>MOLECULE
*****
 32 35 0 0 0
SMALL
GASTEIGER

@<TRIPOS>ATOM
      1 C         138.3843  140.0652  164.0621 C.ar    1  UNL1       -0.0000
      2 C         138.4839  138.7932  163.2735 C.ar    1  UNL1       -0.0003
      3 C         138.1919  138.7980  161.8023 C.ar    1  UNL1       -0.0042
      4 C         137.8003  140.0749  161.1195 C.ar    1  UNL1       -0.0194
      5 C         137.7006  141.3470  161.9081 C.ar    1  UNL1       -0.0042
      6 C         137.9927  141.3422  163.3794 C.ar    1  UNL1       -0.0003
      7 C         141.5160  141.9300  171.0147 C.3     1  UNL1        0.1155
      8 N         140.7677  141.3795  169.8370 N.am    1  UNL1       -0.2702
      9 C         140.9039  141.8352  168.4144 C.3     1  UNL1        0.1206
     10 C         139.9723  141.0139  167.5733 C.ar    1  UNL1        0.0021
     11 C         139.6803  141.0188  166.1020 C.ar    1  UNL1       -0.0025
     12 C         138.6763  140.0604  165.5335 C.ar    1  UNL1       -0.0003
     13 C         137.9643  139.0970  166.4362 C.ar    1  UNL1        0.0001
     14 C         138.2563  139.0921  167.9075 C.ar    1  UNL1        0.0043
     15 C         139.2603  140.0505  168.4760 C.ar    1  UNL1        0.0512
     16 C         139.7519  140.2765  169.8750 C.2     1  UNL1        0.2491
     17 O         139.3059  139.5304  171.0975 O.2     1  UNL1       -0.2699
     18 C         137.5083  140.0798  159.6482 C.3     1  UNL1        0.0616
     19 C         138.5611  140.5230  158.6761 C.3     1  UNL1        0.1684
     20 N         139.9704  140.7374  159.1429 N.am    1  UNL1       -0.2925
     21 C         140.4345  142.1132  159.5197 C.2     1  UNL1        0.2374
     22 O         139.4894  143.2744  159.4296 O.2     1  UNL1       -0.2736
     23 H         140.5907  139.9753  159.2020 H       1  UNL1        0.1504
     24 C         141.8439  142.3276  159.9865 C.3     1  UNL1        0.1315
     25 C         142.1081  142.7723  161.3944 C.3     1  UNL1        0.0251
     26 C         143.5175  142.9868  161.8612 C.3     1  UNL1        0.0033
     27 C         144.6625  142.7564  160.9200 C.3     1  UNL1        0.0171
     28 C         144.3982  142.3117  159.5120 C.3     1  UNL1        0.0689
     29 N         142.9889  142.0972  159.0453 N.3     1  UNL1       -0.2913
     30 H         142.9254  141.1273  158.7362 H       1  UNL1        0.1236
     31 C         138.2047  140.7517  157.2372 C.1     1  UNL1        0.0927
     32 N         137.8482  140.9804  155.7981 N.1     1  UNL1       -0.1942
@<TRIPOS>BOND
     1     7     8    1
     2     8     9    1
     3     9    10    1
     4    10    11   ar
     5    11    12   ar
     6    12     1    1
     7     1     2   ar
     8     2     3   ar
     9     3     4   ar
    10     4    18    1
    11    19    18    1
    12    19    31    1
    13    31    32    3
    14    19    20    1
    15    20    21   am
    16    21    22    2
    17    24    21    1
    18    24    25    1
    19    25    26    1
    20    26    27    1
    21    27    28    1
    22    28    29    1
    23     4     5   ar
    24     5     6   ar
    25    12    13   ar
    26    13    14   ar
    27    14    15   ar
    28    15    16    1
    29    16    17    2
    30    16     8   am
    31    15    10   ar
    32     6     1   ar
    33    29    24    1
    34    20    23    1
    35    29    30    1
@<TRIPOS>MOLECULE
*****
 32 35 0 0 0
SMALL
GASTEIGER

@<TRIPOS>ATOM
      1 C         138.6929  139.3671  161.9807 C.ar    1  UNL1       -0.0000
      2 C         139.0930  138.1219  162.7152 C.ar    1  UNL1       -0.0003
      3 C         138.9860  138.0660  164.2103 C.ar    1  UNL1       -0.0042
      4 C         138.4788  139.2552  164.9710 C.ar    1  UNL1       -0.0194
      5 C         138.0787  140.5004  164.2365 C.ar    1  UNL1       -0.0042
      6 C         138.1857  140.5563  162.7413 C.ar    1  UNL1       -0.0003
      7 C         137.5090  141.5362  154.5297 C.3     1  UNL1        0.1155
      8 N         137.9196  140.9320  155.8398 N.am    1  UNL1       -0.2702
      9 C         137.4123  141.3330  157.1933 C.3     1  UNL1        0.1206
     10 C         138.0888  140.4695  158.2164 C.ar    1  UNL1        0.0021
     11 C         137.9817  140.4136  159.7115 C.ar    1  UNL1       -0.0025
     12 C         138.8000  139.4230  160.4855 C.ar    1  UNL1       -0.0003
     13 C         139.7253  138.4883  159.7644 C.ar    1  UNL1        0.0001
     14 C         139.8324  138.5442  158.2693 C.ar    1  UNL1        0.0043
     15 C         139.0141  139.5348  157.4953 C.ar    1  UNL1        0.0512
     16 C         138.9095  139.8206  156.0265 C.2     1  UNL1        0.2491
     17 O         139.6627  139.1183  154.9359 O.2     1  UNL1       -0.2699
     18 C         138.3718  139.1992  166.4661 C.3     1  UNL1        0.0616
     19 C         139.5002  139.6999  167.3181 C.3     1  UNL1        0.1684
     20 N         140.8488  139.9444  166.7086 N.am    1  UNL1       -0.2925
     21 C         141.2007  141.3063  166.1877 C.2     1  UNL1        0.2374
     22 O         140.2040  142.4237  166.2764 O.2     1  UNL1       -0.2736
     23 H         141.5030  139.2110  166.6504 H       1  UNL1        0.1504
     24 C         142.5494  141.5508  165.5783 C.3     1  UNL1        0.1315
     25 C         143.3027  140.4187  164.9451 C.3     1  UNL1        0.0251
     26 C         144.6513  140.6631  164.3356 C.3     1  UNL1        0.0033
     27 C         145.2467  142.0397  164.3593 C.3     1  UNL1        0.0171
     28 C         144.4933  143.1719  164.9925 C.3     1  UNL1        0.0689
     29 N         143.1447  142.9274  165.6019 N.3     1  UNL1       -0.2913
     30 H         142.4879  143.5406  165.1192 H       1  UNL1        0.1236
     31 C         139.2801  139.9560  168.7795 C.1     1  UNL1        0.0927
     32 N         139.0600  140.2121  170.2410 N.1     1  UNL1       -0.1942
@<TRIPOS>BOND
     1     7     8    1
     2     8     9    1
     3     9    10    1
     4    10    11   ar
     5    11    12   ar
     6    12     1    1
     7     1     2   ar
     8     2     3   ar
     9     3     4   ar
    10     4    18    1
    11    19    18    1
    12    19    31    1
    13    31    32    3
    14    19    20    1
    15    20    21   am
    16    21    22    2
    17    24    21    1
    18    24    25    1
    19    25    26    1
    20    26    27    1
    21    27    28    1
    22    28    29    1
    23     4     5   ar
    24     5     6   ar
    25    12    13   ar
    26    13    14   ar
    27    14    15   ar
    28    15    16    1
    29    16    17    2
    30    16     8   am
    31    15    10   ar
    32     6     1   ar
    33    29    24    1
    34    20    23    1
    35    29    30    1
