@<TRIPOS>MOLECULE
*****
 30 33 0 0 0
SMALL
GASTEIGER

@<TRIPOS>ATOM
      1 C         141.5752  138.9672  163.6908 C.ar    1  UNL1        0.0878
      2 C         140.8972  138.1491  162.6319 C.ar    1  UNL1        0.0091
      3 C         139.5200  137.6052  162.8715 C.ar    1  UNL1        0.0194
      4 C         138.8208  137.8792  164.1700 C.ar    1  UNL1        0.0844
      5 N         139.4987  138.6972  165.2288 N.ar    1  UNL1       -0.2576
      6 C         138.7995  138.9713  166.5273 C.ar    1  UNL1        0.2672
      7 O         137.4223  138.4273  166.7668 O.2     1  UNL1       -0.2665
      8 C         139.4775  139.7893  167.5862 C.ar    1  UNL1        0.0742
      9 C         138.7782  140.0634  168.8846 C.ar    1  UNL1        0.0063
     10 C         139.4561  140.8814  169.9435 C.ar    1  UNL1        0.0003
     11 C         140.8334  141.4254  169.7039 C.ar    1  UNL1        0.0015
     12 C         141.5113  142.2434  170.7628 C.ar    1  UNL1        0.0000
     13 C         142.8885  142.7874  170.5232 C.ar    1  UNL1        0.0000
     14 C         143.5877  142.5133  169.2248 C.ar    1  UNL1        0.0000
     15 C         142.9098  141.6953  168.1659 C.ar    1  UNL1        0.0015
     16 C         141.5326  141.1514  168.4055 C.ar    1  UNL1        0.0179
     17 C         140.8546  140.3333  167.3466 C.ar    1  UNL1        0.0875
     18 N         141.5539  140.0592  166.0481 N.ar    1  UNL1       -0.2276
     19 C         140.8760  139.2412  164.9893 C.ar    1  UNL1        0.1543
     20 N         143.1906  140.4846  162.3352 N.am    1  UNL1       -0.2994
     21 C         142.9524  139.5111  163.4513 C.2     1  UNL1        0.2488
     22 O         144.0914  139.0816  164.3278 O.2     1  UNL1       -0.2700
     23 H         142.4431  140.7666  161.7600 H       1  UNL1        0.1498
     24 C         144.5679  141.0286  162.0957 C.3     1  UNL1        0.1070
     25 C         144.8964  142.4383  162.4892 C.3     1  UNL1        0.0936
     26 N         143.9159  143.2407  163.2920 N.3     1  UNL1       -0.2712
     27 C         144.7853  143.7204  165.6929 C.3     1  UNL1        0.0188
     28 C         143.8158  143.0369  164.7748 C.3     1  UNL1        0.0722
     29 C         143.0354  144.2469  162.6121 C.3     1  UNL1        0.0722
     30 C         142.1297  145.1227  163.4264 C.3     1  UNL1        0.0188
@<TRIPOS>BOND
     1    27    28    1
     2    28    26    1
     3    26    29    1
     4    29    30    1
     5    26    25    1
     6    25    24    1
     7    24    20    1
     8    20    21   am
     9    21    22    2
    10    21     1    1
    11     1     2   ar
    12     2     3   ar
    13     3     4   ar
    14     4     5   ar
    15     5     6   ar
    16     6     7    2
    17     6     8   ar
    18     8     9   ar
    19     9    10   ar
    20    10    11   ar
    21    11    12   ar
    22    12    13   ar
    23    13    14   ar
    24    14    15   ar
    25    15    16   ar
    26    16    17   ar
    27    17    18   ar
    28    18    19   ar
    29    19     1   ar
    30    19     5   ar
    31    17     8   ar
    32    16    11   ar
    33    20    23    1
@<TRIPOS>MOLECULE
*****
 30 33 0 0 0
SMALL
GASTEIGER

@<TRIPOS>ATOM
      1 C         141.7013  141.8077  168.5471 C.ar    1  UNL1        0.0878
      2 C         141.2215  142.1930  169.9152 C.ar    1  UNL1        0.0091
      3 C         139.9525  141.6056  170.4579 C.ar    1  UNL1        0.0194
      4 C         139.1632  140.6329  169.6327 C.ar    1  UNL1        0.0844
      5 N         139.6430  140.2476  168.2648 N.ar    1  UNL1       -0.2576
      6 C         138.8537  139.2749  167.4396 C.ar    1  UNL1        0.2672
      7 O         137.5848  138.6875  167.9823 O.2     1  UNL1       -0.2665
      8 C         139.3335  138.8896  166.0716 C.ar    1  UNL1        0.0742
      9 C         138.5443  137.9169  165.2464 C.ar    1  UNL1        0.0063
     10 C         139.0240  137.5315  163.8784 C.ar    1  UNL1        0.0003
     11 C         140.2931  138.1189  163.3356 C.ar    1  UNL1        0.0015
     12 C         140.7728  137.7336  161.9676 C.ar    1  UNL1        0.0000
     13 C         142.0418  138.3210  161.4249 C.ar    1  UNL1        0.0000
     14 C         142.8310  139.2937  162.2501 C.ar    1  UNL1        0.0000
     15 C         142.3513  139.6790  163.6180 C.ar    1  UNL1        0.0015
     16 C         141.0823  139.0916  164.1608 C.ar    1  UNL1        0.0179
     17 C         140.6025  139.4769  165.5288 C.ar    1  UNL1        0.0875
     18 N         141.3918  140.4496  166.3540 N.ar    1  UNL1       -0.2276
     19 C         140.9120  140.8350  167.7219 C.ar    1  UNL1        0.1543
     20 N         143.1222  142.6186  166.5290 N.am    1  UNL1       -0.2994
     21 C         142.9702  142.3950  168.0044 C.2     1  UNL1        0.2488
     22 O         144.0873  142.7589  168.9371 O.2     1  UNL1       -0.2700
     23 H         142.3891  142.3798  165.9168 H       1  UNL1        0.1498
     24 C         144.3913  143.2060  165.9862 C.3     1  UNL1        0.1070
     25 C         144.7655  142.9861  164.5504 C.3     1  UNL1        0.0936
     26 N         144.2264  143.8963  163.4870 N.3     1  UNL1       -0.2712
     27 C         142.0491  145.2950  163.7172 C.3     1  UNL1        0.0188
     28 C         143.5361  145.1716  163.8706 C.3     1  UNL1        0.0722
     29 C         144.3775  143.5312  162.0400 C.3     1  UNL1        0.0722
     30 C         144.9414  142.1945  161.6587 C.3     1  UNL1        0.0188
@<TRIPOS>BOND
     1    27    28    1
     2    28    26    1
     3    26    29    1
     4    29    30    1
     5    26    25    1
     6    25    24    1
     7    24    20    1
     8    20    21   am
     9    21    22    2
    10    21     1    1
    11     1     2   ar
    12     2     3   ar
    13     3     4   ar
    14     4     5   ar
    15     5     6   ar
    16     6     7    2
    17     6     8   ar
    18     8     9   ar
    19     9    10   ar
    20    10    11   ar
    21    11    12   ar
    22    12    13   ar
    23    13    14   ar
    24    14    15   ar
    25    15    16   ar
    26    16    17   ar
    27    17    18   ar
    28    18    19   ar
    29    19     1   ar
    30    19     5   ar
    31    17     8   ar
    32    16    11   ar
    33    20    23    1
@<TRIPOS>MOLECULE
*****
 30 33 0 0 0
SMALL
GASTEIGER

@<TRIPOS>ATOM
      1 C         142.8522  141.7321  163.5185 C.ar    1  UNL1        0.0878
      2 C         143.5121  141.0847  162.3371 C.ar    1  UNL1        0.0091
      3 C         144.1346  139.7272  162.4765 C.ar    1  UNL1        0.0194
      4 C         144.0974  139.0169  163.7972 C.ar    1  UNL1        0.0844
      5 N         143.4375  139.6642  164.9785 N.ar    1  UNL1       -0.2576
      6 C         143.4002  138.9540  166.2991 C.ar    1  UNL1        0.2672
      7 O         144.0228  137.5964  166.4385 O.2     1  UNL1       -0.2665
      8 C         142.7403  139.6013  167.4805 C.ar    1  UNL1        0.0742
      9 C         142.7031  138.8911  168.8012 C.ar    1  UNL1        0.0063
     10 C         142.0432  139.5384  169.9825 C.ar    1  UNL1        0.0003
     11 C         141.4206  140.8960  169.8432 C.ar    1  UNL1        0.0015
     12 C         140.7607  141.5432  171.0245 C.ar    1  UNL1        0.0000
     13 C         140.1382  142.9008  170.8852 C.ar    1  UNL1        0.0000
     14 C         140.1754  143.6110  169.5645 C.ar    1  UNL1        0.0000
     15 C         140.8353  142.9637  168.3832 C.ar    1  UNL1        0.0015
     16 C         141.4579  141.6062  168.5225 C.ar    1  UNL1        0.0179
     17 C         142.1178  140.9589  167.3412 C.ar    1  UNL1        0.0875
     18 N         142.1550  141.6691  166.0205 N.ar    1  UNL1       -0.2276
     19 C         142.8149  141.0218  164.8392 C.ar    1  UNL1        0.1543
     20 N         140.8957  143.3708  164.0049 N.am    1  UNL1       -0.2994
     21 C         142.2296  143.0896  163.3792 C.2     1  UNL1        0.2488
     22 O         142.9409  144.1660  162.6140 O.2     1  UNL1       -0.2700
     23 H         140.4288  142.6643  164.5071 H       1  UNL1        0.1498
     24 C         140.2731  144.7284  163.8656 C.3     1  UNL1        0.1070
     25 C         139.2465  144.9769  162.8005 C.3     1  UNL1        0.0936
     26 N         139.0553  143.9803  161.6959 N.3     1  UNL1       -0.2712
     27 C         140.5953  145.3589  160.1218 C.3     1  UNL1        0.0188
     28 C         139.8721  144.0844  160.4422 C.3     1  UNL1        0.0722
     29 C         138.0472  142.8797  161.8451 C.3     1  UNL1        0.0722
     30 C         137.4560  142.5814  163.1911 C.3     1  UNL1        0.0188
@<TRIPOS>BOND
     1    27    28    1
     2    28    26    1
     3    26    29    1
     4    29    30    1
     5    26    25    1
     6    25    24    1
     7    24    20    1
     8    20    21   am
     9    21    22    2
    10    21     1    1
    11     1     2   ar
    12     2     3   ar
    13     3     4   ar
    14     4     5   ar
    15     5     6   ar
    16     6     7    2
    17     6     8   ar
    18     8     9   ar
    19     9    10   ar
    20    10    11   ar
    21    11    12   ar
    22    12    13   ar
    23    13    14   ar
    24    14    15   ar
    25    15    16   ar
    26    16    17   ar
    27    17    18   ar
    28    18    19   ar
    29    19     1   ar
    30    19     5   ar
    31    17     8   ar
    32    16    11   ar
    33    20    23    1
@<TRIPOS>MOLECULE
*****
 30 33 0 0 0
SMALL
GASTEIGER

@<TRIPOS>ATOM
      1 C         142.0412  142.0318  162.4312 C.ar    1  UNL1        0.0878
      2 C         142.9149  142.6274  161.3673 C.ar    1  UNL1        0.0091
      3 C         144.1565  143.3774  161.7493 C.ar    1  UNL1        0.0194
      4 C         144.5244  143.5318  163.1953 C.ar    1  UNL1        0.0844
      5 N         143.6507  142.9362  164.2592 N.ar    1  UNL1       -0.2576
      6 C         144.0186  143.0906  165.7052 C.ar    1  UNL1        0.2672
      7 O         145.2602  143.8405  166.0872 O.2     1  UNL1       -0.2665
      8 C         143.1449  142.4950  166.7691 C.ar    1  UNL1        0.0742
      9 C         143.5127  142.6493  168.2151 C.ar    1  UNL1        0.0063
     10 C         142.6391  142.0538  169.2790 C.ar    1  UNL1        0.0003
     11 C         141.3974  141.3038  168.8969 C.ar    1  UNL1        0.0015
     12 C         140.5238  140.7082  169.9608 C.ar    1  UNL1        0.0000
     13 C         139.2822  139.9582  169.5788 C.ar    1  UNL1        0.0000
     14 C         138.9143  139.8038  168.1328 C.ar    1  UNL1        0.0000
     15 C         139.7880  140.3994  167.0689 C.ar    1  UNL1        0.0015
     16 C         141.0295  141.1494  167.4510 C.ar    1  UNL1        0.0179
     17 C         141.9033  141.7450  166.3870 C.ar    1  UNL1        0.0875
     18 N         141.5354  141.5906  164.9411 N.ar    1  UNL1       -0.2276
     19 C         142.4091  142.1862  163.8772 C.ar    1  UNL1        0.1543
     20 N         140.8952  140.0740  161.1648 N.am    1  UNL1       -0.2994
     21 C         140.7996  141.2818  162.0491 C.2     1  UNL1        0.2488
     22 O         139.4624  141.7397  162.5514 O.2     1  UNL1       -0.2700
     23 H         141.7729  139.7735  160.8352 H       1  UNL1        0.1498
     24 C         139.6535  139.3240  160.7828 C.3     1  UNL1        0.1070
     25 C         139.3379  138.0124  161.4386 C.3     1  UNL1        0.0936
     26 N         139.6830  137.7933  162.8817 N.3     1  UNL1       -0.2712
     27 C         142.0985  138.0234  163.8104 C.3     1  UNL1        0.0188
     28 C         140.9968  137.1718  163.2527 C.3     1  UNL1        0.0722
     29 C         138.7143  138.1955  163.9539 C.3     1  UNL1        0.0722
     30 C         138.7144  137.4794  165.2720 C.3     1  UNL1        0.0188
@<TRIPOS>BOND
     1    27    28    1
     2    28    26    1
     3    26    29    1
     4    29    30    1
     5    26    25    1
     6    25    24    1
     7    24    20    1
     8    20    21   am
     9    21    22    2
    10    21     1    1
    11     1     2   ar
    12     2     3   ar
    13     3     4   ar
    14     4     5   ar
    15     5     6   ar
    16     6     7    2
    17     6     8   ar
    18     8     9   ar
    19     9    10   ar
    20    10    11   ar
    21    11    12   ar
    22    12    13   ar
    23    13    14   ar
    24    14    15   ar
    25    15    16   ar
    26    16    17   ar
    27    17    18   ar
    28    18    19   ar
    29    19     1   ar
    30    19     5   ar
    31    17     8   ar
    32    16    11   ar
    33    20    23    1
@<TRIPOS>MOLECULE
*****
 30 33 0 0 0
SMALL
GASTEIGER

@<TRIPOS>ATOM
      1 C         140.3396  142.3808  161.3680 C.ar    1  UNL1        0.0878
      2 C         140.1789  142.1081  159.9017 C.ar    1  UNL1        0.0091
      3 C         139.5349  140.8338  159.4421 C.ar    1  UNL1        0.0194
      4 C         139.0516  139.8321  160.4486 C.ar    1  UNL1        0.0844
      5 N         139.2123  140.1048  161.9148 N.ar    1  UNL1       -0.2576
      6 C         138.7291  139.1031  162.9213 C.ar    1  UNL1        0.2672
      7 O         138.0851  137.8288  162.4617 O.2     1  UNL1       -0.2665
      8 C         138.8898  139.3758  164.3876 C.ar    1  UNL1        0.0742
      9 C         138.4065  138.3742  165.3941 C.ar    1  UNL1        0.0063
     10 C         138.5672  138.6468  166.8603 C.ar    1  UNL1        0.0003
     11 C         139.2112  139.9212  167.3201 C.ar    1  UNL1        0.0015
     12 C         139.3719  140.1939  168.7863 C.ar    1  UNL1        0.0000
     13 C         140.0159  141.4682  169.2459 C.ar    1  UNL1        0.0000
     14 C         140.4991  142.4699  168.2394 C.ar    1  UNL1        0.0000
     15 C         140.3384  142.1972  166.7732 C.ar    1  UNL1        0.0015
     16 C         139.6945  140.9229  166.3135 C.ar    1  UNL1        0.0179
     17 C         139.5338  140.6502  164.8473 C.ar    1  UNL1        0.0875
     18 N         140.0170  141.6518  163.8407 N.ar    1  UNL1       -0.2276
     19 C         139.8563  141.3792  162.3745 C.ar    1  UNL1        0.1543
     20 N         141.1814  143.9096  163.2926 N.am    1  UNL1       -0.2994
     21 C         140.9836  143.6552  161.8277 C.2     1  UNL1        0.2488
     22 O         141.4297  144.6752  160.8223 O.2     1  UNL1       -0.2700
     23 H         140.8887  143.2401  163.9525 H       1  UNL1        0.1498
     24 C         141.8254  145.1840  163.7523 C.3     1  UNL1        0.1070
     25 C         143.3206  145.2993  163.7852 C.3     1  UNL1        0.0936
     26 N         144.1698  144.0650  163.7124 N.3     1  UNL1       -0.2712
     27 C         143.6639  142.3739  165.6187 C.3     1  UNL1        0.0188
     28 C         144.5856  143.3652  164.9723 C.3     1  UNL1        0.0722
     29 C         144.6033  143.5305  162.3796 C.3     1  UNL1        0.0722
     30 C         144.3184  142.1036  162.0150 C.3     1  UNL1        0.0188
@<TRIPOS>BOND
     1    27    28    1
     2    28    26    1
     3    26    29    1
     4    29    30    1
     5    26    25    1
     6    25    24    1
     7    24    20    1
     8    20    21   am
     9    21    22    2
    10    21     1    1
    11     1     2   ar
    12     2     3   ar
    13     3     4   ar
    14     4     5   ar
    15     5     6   ar
    16     6     7    2
    17     6     8   ar
    18     8     9   ar
    19     9    10   ar
    20    10    11   ar
    21    11    12   ar
    22    12    13   ar
    23    13    14   ar
    24    14    15   ar
    25    15    16   ar
    26    16    17   ar
    27    17    18   ar
    28    18    19   ar
    29    19     1   ar
    30    19     5   ar
    31    17     8   ar
    32    16    11   ar
    33    20    23    1
@<TRIPOS>MOLECULE
*****
 30 33 0 0 0
SMALL
GASTEIGER

@<TRIPOS>ATOM
      1 C         142.6316  143.0418  160.1014 C.ar    1  UNL1        0.0878
      2 C         142.5263  143.6404  158.7300 C.ar    1  UNL1        0.0091
      3 C         141.5191  144.7179  158.4573 C.ar    1  UNL1        0.0194
      4 C         140.6171  145.1969  159.5559 C.ar    1  UNL1        0.0844
      5 N         140.7223  144.5984  160.9273 N.ar    1  UNL1       -0.2576
      6 C         139.8204  145.0774  162.0259 C.ar    1  UNL1        0.2672
      7 O         138.8131  146.1549  161.7532 O.2     1  UNL1       -0.2665
      8 C         139.9257  144.4789  163.3973 C.ar    1  UNL1        0.0742
      9 C         139.0237  144.9579  164.4960 C.ar    1  UNL1        0.0063
     10 C         139.1290  144.3594  165.8673 C.ar    1  UNL1        0.0003
     11 C         140.1362  143.2819  166.1401 C.ar    1  UNL1        0.0015
     12 C         140.2415  142.6834  167.5115 C.ar    1  UNL1        0.0000
     13 C         141.2487  141.6059  167.7842 C.ar    1  UNL1        0.0000
     14 C         142.1507  141.1269  166.6856 C.ar    1  UNL1        0.0000
     15 C         142.0454  141.7253  165.3142 C.ar    1  UNL1        0.0015
     16 C         141.0382  142.8028  165.0415 C.ar    1  UNL1        0.0179
     17 C         140.9329  143.4014  163.6701 C.ar    1  UNL1        0.0875
     18 N         141.8349  142.9224  162.5714 N.ar    1  UNL1       -0.2276
     19 C         141.7296  143.5208  161.2001 C.ar    1  UNL1        0.1543
     20 N         143.2108  140.5269  160.4011 N.am    1  UNL1       -0.2994
     21 C         143.6388  141.9643  160.3742 C.2     1  UNL1        0.2488
     22 O         145.0742  142.3242  160.6200 O.2     1  UNL1       -0.2700
     23 H         142.2688  140.2907  160.2398 H       1  UNL1        0.1498
     24 C         144.2181  139.4494  160.6739 C.3     1  UNL1        0.1070
     25 C         143.9430  138.4139  161.7237 C.3     1  UNL1        0.0936
     26 N         143.5801  138.8360  163.1166 N.3     1  UNL1       -0.2712
     27 C         145.2593  140.6786  163.8483 C.3     1  UNL1        0.0188
     28 C         144.6445  139.3258  164.0532 C.3     1  UNL1        0.0722
     29 C         142.1528  138.7684  163.5728 C.3     1  UNL1        0.0722
     30 C         141.7398  137.7519  164.5957 C.3     1  UNL1        0.0188
@<TRIPOS>BOND
     1    27    28    1
     2    28    26    1
     3    26    29    1
     4    29    30    1
     5    26    25    1
     6    25    24    1
     7    24    20    1
     8    20    21   am
     9    21    22    2
    10    21     1    1
    11     1     2   ar
    12     2     3   ar
    13     3     4   ar
    14     4     5   ar
    15     5     6   ar
    16     6     7    2
    17     6     8   ar
    18     8     9   ar
    19     9    10   ar
    20    10    11   ar
    21    11    12   ar
    22    12    13   ar
    23    13    14   ar
    24    14    15   ar
    25    15    16   ar
    26    16    17   ar
    27    17    18   ar
    28    18    19   ar
    29    19     1   ar
    30    19     5   ar
    31    17     8   ar
    32    16    11   ar
    33    20    23    1
@<TRIPOS>MOLECULE
*****
 30 33 0 0 0
SMALL
GASTEIGER

@<TRIPOS>ATOM
      1 C         139.4870  139.9061  166.9018 C.ar    1  UNL1        0.0878
      2 C         138.9617  139.7274  168.2955 C.ar    1  UNL1        0.0091
      3 C         139.6758  140.3600  169.4529 C.ar    1  UNL1        0.0194
      4 C         140.9151  141.1714  169.2169 C.ar    1  UNL1        0.0844
      5 N         141.4404  141.3501  167.8233 N.ar    1  UNL1       -0.2576
      6 C         142.6797  142.1615  167.5872 C.ar    1  UNL1        0.2672
      7 O         143.3938  142.7941  168.7447 O.2     1  UNL1       -0.2665
      8 C         143.2050  142.3402  166.1936 C.ar    1  UNL1        0.0742
      9 C         144.4443  143.1516  165.9575 C.ar    1  UNL1        0.0063
     10 C         144.9696  143.3303  164.5639 C.ar    1  UNL1        0.0003
     11 C         144.2556  142.6976  163.4063 C.ar    1  UNL1        0.0015
     12 C         144.7809  142.8763  162.0128 C.ar    1  UNL1        0.0000
     13 C         144.0668  142.2437  160.8553 C.ar    1  UNL1        0.0000
     14 C         142.8275  141.4323  161.0913 C.ar    1  UNL1        0.0000
     15 C         142.3022  141.2536  162.4849 C.ar    1  UNL1        0.0015
     16 C         143.0162  141.8862  163.6424 C.ar    1  UNL1        0.0179
     17 C         142.4910  141.7075  165.0361 C.ar    1  UNL1        0.0875
     18 N         141.2516  140.8961  165.2721 N.ar    1  UNL1       -0.2276
     19 C         140.7263  140.7174  166.6657 C.ar    1  UNL1        0.1543
     20 N         138.6587  140.0078  164.4414 N.am    1  UNL1       -0.2994
     21 C         138.7730  139.2734  165.7443 C.2     1  UNL1        0.2488
     22 O         138.1731  137.9062  165.8897 O.2     1  UNL1       -0.2700
     23 H         139.0524  140.9051  164.3460 H       1  UNL1        0.1498
     24 C         137.9446  139.3751  163.2839 C.3     1  UNL1        0.1070
     25 C         138.5513  138.1964  162.5820 C.3     1  UNL1        0.0936
     26 N         139.8149  138.3632  161.7912 N.3     1  UNL1       -0.2712
     27 C         140.0837  138.6141  159.2193 C.3     1  UNL1        0.0188
     28 C         139.8233  139.2256  160.5640 C.3     1  UNL1        0.0722
     29 C         141.0701  137.6675  162.2276 C.3     1  UNL1        0.0722
     30 C         141.4848  137.7026  163.6688 C.3     1  UNL1        0.0188
@<TRIPOS>BOND
     1    27    28    1
     2    28    26    1
     3    26    29    1
     4    29    30    1
     5    26    25    1
     6    25    24    1
     7    24    20    1
     8    20    21   am
     9    21    22    2
    10    21     1    1
    11     1     2   ar
    12     2     3   ar
    13     3     4   ar
    14     4     5   ar
    15     5     6   ar
    16     6     7    2
    17     6     8   ar
    18     8     9   ar
    19     9    10   ar
    20    10    11   ar
    21    11    12   ar
    22    12    13   ar
    23    13    14   ar
    24    14    15   ar
    25    15    16   ar
    26    16    17   ar
    27    17    18   ar
    28    18    19   ar
    29    19     1   ar
    30    19     5   ar
    31    17     8   ar
    32    16    11   ar
    33    20    23    1
@<TRIPOS>MOLECULE
*****
 30 33 0 0 0
SMALL
GASTEIGER

@<TRIPOS>ATOM
      1 C         143.6201  140.2919  162.7285 C.ar    1  UNL1        0.0878
      2 C         144.8718  140.9666  162.2506 C.ar    1  UNL1        0.0091
      3 C         145.5551  141.9813  163.1186 C.ar    1  UNL1        0.0194
      4 C         144.9868  142.3213  164.4645 C.ar    1  UNL1        0.0844
      5 N         143.7353  141.6467  164.9424 N.ar    1  UNL1       -0.2576
      6 C         143.1671  141.9867  166.2883 C.ar    1  UNL1        0.2672
      7 O         143.8504  143.0014  167.1563 O.2     1  UNL1       -0.2665
      8 C         141.9154  141.3120  166.7662 C.ar    1  UNL1        0.0742
      9 C         141.3472  141.6520  168.1122 C.ar    1  UNL1        0.0063
     10 C         140.0957  140.9774  168.5901 C.ar    1  UNL1        0.0003
     11 C         139.4123  139.9626  167.7220 C.ar    1  UNL1        0.0015
     12 C         138.1608  139.2880  168.2000 C.ar    1  UNL1        0.0000
     13 C         137.4774  138.2733  167.3320 C.ar    1  UNL1        0.0000
     14 C         138.0457  137.9333  165.9860 C.ar    1  UNL1        0.0000
     15 C         139.2972  138.6079  165.5081 C.ar    1  UNL1        0.0015
     16 C         139.9805  139.6226  166.3761 C.ar    1  UNL1        0.0179
     17 C         141.2321  140.2973  165.8982 C.ar    1  UNL1        0.0875
     18 N         141.8004  139.9573  164.5523 N.ar    1  UNL1       -0.2276
     19 C         143.0519  140.6319  164.0744 C.ar    1  UNL1        0.1543
     20 N         141.4438  139.2967  161.7170 N.am    1  UNL1       -0.2994
     21 C         142.9368  139.2772  161.8605 C.2     1  UNL1        0.2488
     22 O         143.7465  138.2431  161.1359 O.2     1  UNL1       -0.2700
     23 H         140.9124  139.9754  162.1925 H       1  UNL1        0.1498
     24 C         140.7605  138.2819  160.8489 C.3     1  UNL1        0.1070
     25 C         139.2678  138.3031  160.7032 C.3     1  UNL1        0.0936
     26 N         138.5151  139.5884  160.8803 N.3     1  UNL1       -0.2712
     27 C         138.5392  140.3023  158.3824 C.3     1  UNL1        0.0188
     28 C         138.6083  140.6620  159.8370 C.3     1  UNL1        0.0722
     29 C         137.6692  139.8001  162.1008 C.3     1  UNL1        0.0722
     30 C         137.9915  140.9137  163.0528 C.3     1  UNL1        0.0188
@<TRIPOS>BOND
     1    27    28    1
     2    28    26    1
     3    26    29    1
     4    29    30    1
     5    26    25    1
     6    25    24    1
     7    24    20    1
     8    20    21   am
     9    21    22    2
    10    21     1    1
    11     1     2   ar
    12     2     3   ar
    13     3     4   ar
    14     4     5   ar
    15     5     6   ar
    16     6     7    2
    17     6     8   ar
    18     8     9   ar
    19     9    10   ar
    20    10    11   ar
    21    11    12   ar
    22    12    13   ar
    23    13    14   ar
    24    14    15   ar
    25    15    16   ar
    26    16    17   ar
    27    17    18   ar
    28    18    19   ar
    29    19     1   ar
    30    19     5   ar
    31    17     8   ar
    32    16    11   ar
    33    20    23    1
@<TRIPOS>MOLECULE
*****
 30 33 0 0 0
SMALL
GASTEIGER

@<TRIPOS>ATOM
      1 C         142.3843  143.8292  157.2490 C.ar    1  UNL1        0.0878
      2 C         141.5179  144.4135  156.1729 C.ar    1  UNL1        0.0091
      3 C         140.3784  145.3187  156.5364 C.ar    1  UNL1        0.0194
      4 C         140.1053  145.6396  157.9760 C.ar    1  UNL1        0.0844
      5 N         140.9717  145.0553  159.0521 N.ar    1  UNL1       -0.2576
      6 C         140.6986  145.3762  160.4917 C.ar    1  UNL1        0.2672
      7 O         139.5591  146.2814  160.8552 O.2     1  UNL1       -0.2665
      8 C         141.5650  144.7918  161.5678 C.ar    1  UNL1        0.0742
      9 C         141.2919  145.1127  163.0074 C.ar    1  UNL1        0.0063
     10 C         142.1583  144.5285  164.0834 C.ar    1  UNL1        0.0003
     11 C         143.2979  143.6232  163.7199 C.ar    1  UNL1        0.0015
     12 C         144.1642  143.0390  164.7960 C.ar    1  UNL1        0.0000
     13 C         145.3037  142.1338  164.4325 C.ar    1  UNL1        0.0000
     14 C         145.5768  141.8129  162.9929 C.ar    1  UNL1        0.0000
     15 C         144.7104  142.3972  161.9168 C.ar    1  UNL1        0.0015
     16 C         143.5710  143.3023  162.2803 C.ar    1  UNL1        0.0179
     17 C         142.7045  143.8867  161.2042 C.ar    1  UNL1        0.0875
     18 N         142.9776  143.5658  159.7647 N.ar    1  UNL1       -0.2276
     19 C         142.1112  144.1501  158.6886 C.ar    1  UNL1        0.1543
     20 N         144.8511  143.0784  157.5669 N.am    1  UNL1       -0.2994
     21 C         143.5238  142.9240  156.8855 C.2     1  UNL1        0.2488
     22 O         143.3360  141.8644  155.8404 O.2     1  UNL1       -0.2700
     23 H         144.9744  143.7738  158.2528 H       1  UNL1        0.1498
     24 C         145.9906  142.1731  157.2033 C.3     1  UNL1        0.1070
     25 C         147.2522  142.7483  156.6308 C.3     1  UNL1        0.0936
     26 N         147.4677  142.7540  155.1465 N.3     1  UNL1       -0.2712
     27 C         149.8391  141.6946  155.2107 C.3     1  UNL1        0.0188
     28 C         148.5100  141.8642  154.5365 C.3     1  UNL1        0.0722
     29 C         146.6410  143.6494  154.2720 C.3     1  UNL1        0.0722
     30 C         147.2867  144.7909  153.5438 C.3     1  UNL1        0.0188
@<TRIPOS>BOND
     1    27    28    1
     2    28    26    1
     3    26    29    1
     4    29    30    1
     5    26    25    1
     6    25    24    1
     7    24    20    1
     8    20    21   am
     9    21    22    2
    10    21     1    1
    11     1     2   ar
    12     2     3   ar
    13     3     4   ar
    14     4     5   ar
    15     5     6   ar
    16     6     7    2
    17     6     8   ar
    18     8     9   ar
    19     9    10   ar
    20    10    11   ar
    21    11    12   ar
    22    12    13   ar
    23    13    14   ar
    24    14    15   ar
    25    15    16   ar
    26    16    17   ar
    27    17    18   ar
    28    18    19   ar
    29    19     1   ar
    30    19     5   ar
    31    17     8   ar
    32    16    11   ar
    33    20    23    1
