@<TRIPOS>MOLECULE
*****
 46 50 0 0 0
SMALL
GASTEIGER

@<TRIPOS>ATOM
      1 C         140.0863  141.8955  158.5716 C.ar    1  UNL1        0.0375
      2 C         139.0849  141.7466  157.4647 C.ar    1  UNL1        0.1031
      3 N         138.7080  142.9341  156.6296 N.ar    1  UNL1       -0.2121
      4 C         139.3325  144.2707  156.9012 C.ar    1  UNL1        0.2200
      5 N         140.3338  144.4196  158.0080 N.ar    1  UNL1       -0.2163
      6 C         140.7107  143.2320  158.8433 C.ar    1  UNL1        0.0836
      7 C         141.4171  139.6838  158.8671 C.ar    1  UNL1        0.1387
      8 C         141.7939  138.4962  159.7023 C.ar    1  UNL1        0.0369
      9 C         141.2169  138.3327  161.0772 C.ar    1  UNL1        0.0031
     10 C         140.2630  139.3568  161.6169 C.ar    1  UNL1       -0.0001
     11 C         139.8862  140.5444  160.7817 C.ar    1  UNL1        0.0031
     12 C         140.4632  140.7078  159.4068 C.ar    1  UNL1        0.0367
     13 C         139.6860  139.1933  162.9918 C.ar    1  UNL1       -0.0039
     14 C         138.6424  140.1507  163.4859 C.ar    1  UNL1       -0.0003
     15 C         138.0654  139.9872  164.8608 C.ar    1  UNL1        0.0011
     16 C         138.5320  138.8663  165.7416 C.ar    1  UNL1        0.0137
     17 C         139.5757  137.9089  165.2475 C.ar    1  UNL1       -0.0031
     18 C         140.1527  138.0724  163.8726 C.ar    1  UNL1       -0.0218
     19 C         141.1964  137.1150  163.3785 C.3     1  UNL1        0.0310
     20 C         137.9550  138.7028  167.1165 C.2     1  UNL1        0.0729
     21 O         138.5978  139.3877  168.2859 O.co2   1  UNL1       -0.5446
     22 O         136.7352  137.8545  167.3219 O.co2   1  UNL1       -0.5446
     23 C         143.3052  140.5522  157.3080 C.3     1  UNL1        0.2525
     24 O         141.9941  139.8472  157.4922 O.3     1  UNL1       -0.4714
     25 N         138.9555  145.4583  156.0660 N.pl3   1  UNL1       -0.2747
     26 C         139.5866  146.7928  156.3318 C.3     1  UNL1        0.1151
     27 C         137.9475  145.3113  154.9650 C.3     1  UNL1        0.1151
     28 C         141.7121  143.3809  159.9501 C.3     1  UNL1        0.1428
     29 N         141.2604  143.3442  161.3801 N.am    1  UNL1       -0.2380
     30 C         140.1366  144.1433  161.9704 C.2     1  UNL1        0.4055
     31 O         139.2672  145.1193  161.2345 O.2     1  UNL1       -0.2262
     32 O         140.0348  143.7950  163.4259 O.3     1  UNL1       -0.4320
     33 C         141.0958  142.7806  163.7350 C.3     1  UNL1        0.2107
     34 C         141.8532  142.5021  162.4706 C.3     1  UNL1        0.1233
     35 C         143.0018  141.5487  162.3227 C.3     1  UNL1        0.0258
     36 C         141.3540  142.1548  165.0735 C.ar    1  UNL1        0.0198
     37 C         140.8694  142.8289  166.3228 C.ar    1  UNL1        0.0106
     38 C         141.1276  142.2031  167.6612 C.ar    1  UNL1        0.0574
     39 CL        140.6430  142.8773  168.9104 Cl      1  UNL1       -0.0823
     40 C         141.8704  140.9030  167.7505 C.ar    1  UNL1        0.0152
     41 C         142.3550  140.2287  166.5012 C.ar    1  UNL1        0.0721
     42 C         142.0968  140.8547  165.1627 C.ar    1  UNL1        0.0031
     43 C         143.0978  138.9286  166.5905 C.3     1  UNL1        0.4186
     44 F         143.8406  137.6285  166.6798 F       1  UNL1       -0.1659
     45 F         142.8518  138.8897  168.0697 F       1  UNL1       -0.1659
     46 F         143.3438  138.9675  165.1113 F       1  UNL1       -0.1659
@<TRIPOS>UNITY_ATOM_ATTR
21 1
charge -1
@<TRIPOS>BOND
     1    23    24    1
     2    24     7    1
     3     7     8   ar
     4     8     9   ar
     5     9    10   ar
     6    10    13    1
     7    13    14   ar
     8    14    15   ar
     9    15    16   ar
    10    16    20    1
    11    20    21   ar
    12    20    22   ar
    13    16    17   ar
    14    17    18   ar
    15    18    19    1
    16    10    11   ar
    17    11    12   ar
    18    12     1    1
    19     1     2   ar
    20     2     3   ar
    21     3     4   ar
    22     4    25    1
    23    25    26    1
    24    25    27    1
    25     4     5   ar
    26     5     6   ar
    27     6    28    1
    28    28    29    1
    29    29    30   am
    30    30    31    2
    31    30    32    1
    32    32    33    1
    33    33    36    1
    34    36    37   ar
    35    37    38   ar
    36    38    39    1
    37    38    40   ar
    38    40    41   ar
    39    41    43    1
    40    43    44    1
    41    43    45    1
    42    43    46    1
    43    41    42   ar
    44    33    34    1
    45    34    35    1
    46    12     7   ar
    47     6     1   ar
    48    34    29    1
    49    18    13   ar
    50    42    36   ar
@<TRIPOS>MOLECULE
*****
 46 50 0 0 0
SMALL
GASTEIGER

@<TRIPOS>ATOM
      1 C         141.4002  140.4463  157.7638 C.ar    1  UNL1        0.0375
      2 C         142.2566  141.0940  156.7164 C.ar    1  UNL1        0.1031
      3 N         141.6194  141.7568  155.5312 N.ar    1  UNL1       -0.2121
      4 C         140.1258  141.7719  155.3934 C.ar    1  UNL1        0.2200
      5 N         139.2694  141.1241  156.4408 N.ar    1  UNL1       -0.2163
      6 C         139.9067  140.4613  157.6260 C.ar    1  UNL1        0.0836
      7 C         142.3407  138.3149  158.9139 C.ar    1  UNL1        0.1387
      8 C         142.9779  137.6521  160.0991 C.ar    1  UNL1        0.0369
      9 C         143.3119  138.4580  161.3194 C.ar    1  UNL1        0.0031
     10 C         143.0087  139.9266  161.3544 C.ar    1  UNL1       -0.0001
     11 C         142.3715  140.5893  160.1693 C.ar    1  UNL1        0.0031
     12 C         142.0375  139.7834  158.9490 C.ar    1  UNL1        0.0367
     13 C         143.3427  140.7324  162.5747 C.ar    1  UNL1       -0.0039
     14 C         144.0707  142.0365  162.4362 C.ar    1  UNL1       -0.0003
     15 C         144.4047  142.8424  163.6564 C.ar    1  UNL1        0.0011
     16 C         144.0107  142.3441  165.0153 C.ar    1  UNL1        0.0137
     17 C         143.2826  141.0400  165.1538 C.ar    1  UNL1       -0.0031
     18 C         142.9486  140.2342  163.9335 C.ar    1  UNL1       -0.0218
     19 C         142.2205  138.9300  164.0721 C.3     1  UNL1        0.0310
     20 C         144.3447  143.1500  166.2355 C.2     1  UNL1        0.0729
     21 O         145.2932  144.3074  166.1334 O.co2   1  UNL1       -0.5446
     22 O         143.7301  142.7984  167.5579 O.co2   1  UNL1       -0.5446
     23 C         143.0854  137.1447  156.7171 C.3     1  UNL1        0.2525
     24 O         142.0067  137.5090  157.6936 O.3     1  UNL1       -0.4714
     25 N         139.4886  142.4346  154.2082 N.pl3   1  UNL1       -0.2747
     26 C         137.9953  142.4455  154.0679 C.3     1  UNL1        0.1151
     27 C         140.3449  143.0866  153.1633 C.3     1  UNL1        0.1151
     28 C         139.0503  139.8136  158.6734 C.3     1  UNL1        0.1428
     29 N         138.8893  140.4617  160.0166 N.am    1  UNL1       -0.2380
     30 C         138.4650  141.8786  160.2666 C.2     1  UNL1        0.4055
     31 O         138.1274  142.8961  159.2175 O.2     1  UNL1       -0.2262
     32 O         138.4377  142.0993  161.7501 O.3     1  UNL1       -0.4320
     33 C         138.8451  140.8188  162.4168 C.3     1  UNL1        0.2107
     34 C         139.1242  139.8068  161.3455 C.3     1  UNL1        0.1233
     35 C         139.5613  138.3887  161.5644 C.3     1  UNL1        0.0258
     36 C         138.9543  140.5905  163.8953 C.ar    1  UNL1        0.0198
     37 C         139.6384  141.6054  164.7625 C.ar    1  UNL1        0.0106
     38 C         139.7475  141.3771  166.2409 C.ar    1  UNL1        0.0574
     39 CL        140.4317  142.3920  167.1080 Cl      1  UNL1       -0.0823
     40 C         139.1726  140.1339  166.8523 C.ar    1  UNL1        0.0152
     41 C         138.4884  139.1189  165.9851 C.ar    1  UNL1        0.0721
     42 C         138.3793  139.3473  164.5066 C.ar    1  UNL1        0.0031
     43 C         137.9134  137.8757  166.5965 C.3     1  UNL1        0.4186
     44 F         137.3384  136.6325  167.2079 F       1  UNL1       -0.1659
     45 F         138.4877  137.0594  165.4768 F       1  UNL1       -0.1659
     46 F         137.3391  138.6920  167.7163 F       1  UNL1       -0.1659
@<TRIPOS>UNITY_ATOM_ATTR
21 1
charge -1
@<TRIPOS>BOND
     1    23    24    1
     2    24     7    1
     3     7     8   ar
     4     8     9   ar
     5     9    10   ar
     6    10    13    1
     7    13    14   ar
     8    14    15   ar
     9    15    16   ar
    10    16    20    1
    11    20    21   ar
    12    20    22   ar
    13    16    17   ar
    14    17    18   ar
    15    18    19    1
    16    10    11   ar
    17    11    12   ar
    18    12     1    1
    19     1     2   ar
    20     2     3   ar
    21     3     4   ar
    22     4    25    1
    23    25    26    1
    24    25    27    1
    25     4     5   ar
    26     5     6   ar
    27     6    28    1
    28    28    29    1
    29    29    30   am
    30    30    31    2
    31    30    32    1
    32    32    33    1
    33    33    36    1
    34    36    37   ar
    35    37    38   ar
    36    38    39    1
    37    38    40   ar
    38    40    41   ar
    39    41    43    1
    40    43    44    1
    41    43    45    1
    42    43    46    1
    43    41    42   ar
    44    33    34    1
    45    34    35    1
    46    12     7   ar
    47     6     1   ar
    48    34    29    1
    49    18    13   ar
    50    42    36   ar
@<TRIPOS>MOLECULE
*****
 46 50 0 0 0
SMALL
GASTEIGER

@<TRIPOS>ATOM
      1 C         141.0482  138.9172  158.3542 C.ar    1  UNL1        0.0375
      2 C         140.1130  138.0312  157.5859 C.ar    1  UNL1        0.1031
      3 N         140.6604  137.0073  156.6362 N.ar    1  UNL1       -0.2121
      4 C         142.1430  136.8693  156.4549 C.ar    1  UNL1        0.2200
      5 N         143.0782  137.7553  157.2232 N.ar    1  UNL1       -0.2163
      6 C         142.5308  138.7793  158.1729 C.ar    1  UNL1        0.0836
      7 C         140.2819  141.3514  158.8420 C.ar    1  UNL1        0.1387
      8 C         139.7345  142.3753  159.7917 C.ar    1  UNL1        0.0369
      9 C         139.4060  141.9890  161.2034 C.ar    1  UNL1        0.0031
     10 C         139.6249  140.5788  161.6654 C.ar    1  UNL1       -0.0001
     11 C         140.1723  139.5549  160.7157 C.ar    1  UNL1        0.0031
     12 C         140.5008  139.9412  159.3040 C.ar    1  UNL1        0.0367
     13 C         139.2964  140.1925  163.0771 C.ar    1  UNL1       -0.0039
     14 C         138.6756  138.8576  163.3643 C.ar    1  UNL1       -0.0003
     15 C         138.3471  138.4714  164.7759 C.ar    1  UNL1        0.0011
     16 C         138.6395  139.4200  165.9005 C.ar    1  UNL1        0.0137
     17 C         139.2603  140.7549  165.6133 C.ar    1  UNL1       -0.0031
     18 C         139.5888  141.1412  164.2016 C.ar    1  UNL1       -0.0218
     19 C         140.2097  142.4762  163.9144 C.3     1  UNL1        0.0310
     20 C         138.3110  139.0337  167.3122 C.2     1  UNL1        0.0729
     21 O         137.2608  137.9971  167.5810 O.co2   1  UNL1       -0.5446
     22 O         139.0328  139.6841  168.4550 O.co2   1  UNL1       -0.5446
     23 C         141.7986  142.6085  157.1481 C.3     1  UNL1        0.2525
     24 O         140.6104  141.7376  157.4303 O.3     1  UNL1       -0.4714
     25 N         142.6904  135.8454  155.5052 N.pl3   1  UNL1       -0.2747
     26 C         142.1188  135.7223  154.1238 C.3     1  UNL1        0.1151
     27 C         143.8093  134.9446  155.9369 C.3     1  UNL1        0.1151
     28 C         143.4660  139.6653  158.9413 C.3     1  UNL1        0.1428
     29 N         143.5592  139.5427  160.4334 N.am    1  UNL1       -0.2380
     30 C         143.7726  138.2723  161.2020 C.2     1  UNL1        0.4055
     31 O         143.9302  136.9016  160.6135 O.2     1  UNL1       -0.2262
     32 O         143.8006  138.6134  162.6625 O.3     1  UNL1       -0.4320
     33 C         143.6046  140.0945  162.7964 C.3     1  UNL1        0.2107
     34 C         143.4554  140.6688  161.4188 C.3     1  UNL1        0.1233
     35 C         143.2402  142.1153  161.0851 C.3     1  UNL1        0.0258
     36 C         143.5648  140.8659  164.0822 C.ar    1  UNL1        0.0198
     37 C         144.0625  142.2803  164.1242 C.ar    1  UNL1        0.0106
     38 C         144.0227  143.0516  165.4099 C.ar    1  UNL1        0.0574
     39 CL        144.5204  144.4660  165.4518 Cl      1  UNL1       -0.0823
     40 C         143.4852  142.4086  166.6540 C.ar    1  UNL1        0.0152
     41 C         142.9874  140.9941  166.6121 C.ar    1  UNL1        0.0721
     42 C         143.0273  140.2228  165.3262 C.ar    1  UNL1        0.0031
     43 C         142.4499  140.3511  167.8562 C.3     1  UNL1        0.4186
     44 F         141.9124  139.7081  169.1002 F       1  UNL1       -0.1659
     45 F         141.8528  139.2511  167.0295 F       1  UNL1       -0.1659
     46 F         143.0471  141.4511  168.6828 F       1  UNL1       -0.1659
@<TRIPOS>UNITY_ATOM_ATTR
21 1
charge -1
@<TRIPOS>BOND
     1    23    24    1
     2    24     7    1
     3     7     8   ar
     4     8     9   ar
     5     9    10   ar
     6    10    13    1
     7    13    14   ar
     8    14    15   ar
     9    15    16   ar
    10    16    20    1
    11    20    21   ar
    12    20    22   ar
    13    16    17   ar
    14    17    18   ar
    15    18    19    1
    16    10    11   ar
    17    11    12   ar
    18    12     1    1
    19     1     2   ar
    20     2     3   ar
    21     3     4   ar
    22     4    25    1
    23    25    26    1
    24    25    27    1
    25     4     5   ar
    26     5     6   ar
    27     6    28    1
    28    28    29    1
    29    29    30   am
    30    30    31    2
    31    30    32    1
    32    32    33    1
    33    33    36    1
    34    36    37   ar
    35    37    38   ar
    36    38    39    1
    37    38    40   ar
    38    40    41   ar
    39    41    43    1
    40    43    44    1
    41    43    45    1
    42    43    46    1
    43    41    42   ar
    44    33    34    1
    45    34    35    1
    46    12     7   ar
    47     6     1   ar
    48    34    29    1
    49    18    13   ar
    50    42    36   ar
@<TRIPOS>MOLECULE
*****
 46 50 0 0 0
SMALL
GASTEIGER

@<TRIPOS>ATOM
      1 C         139.7154  140.0046  161.6466 C.ar    1  UNL1        0.0375
      2 C         138.2789  139.6870  161.3543 C.ar    1  UNL1        0.1031
      3 N         137.6417  140.1882  160.0923 N.ar    1  UNL1       -0.2121
      4 C         138.4412  141.0070  159.1224 C.ar    1  UNL1        0.2200
      5 N         139.8778  141.3246  159.4148 N.ar    1  UNL1       -0.2163
      6 C         140.5149  140.8233  160.6769 C.ar    1  UNL1        0.0836
      7 C         141.1523  138.2344  162.8925 C.ar    1  UNL1        0.1387
      8 C         141.7893  137.7333  164.1546 C.ar    1  UNL1        0.0369
      9 C         141.6266  138.5009  165.4330 C.ar    1  UNL1        0.0031
     10 C         140.8268  139.7698  165.4492 C.ar    1  UNL1       -0.0001
     11 C         140.1898  140.2710  164.1871 C.ar    1  UNL1        0.0031
     12 C         140.3525  139.5033  162.9088 C.ar    1  UNL1        0.0367
     13 C         140.6641  140.5375  166.7276 C.ar    1  UNL1       -0.0039
     14 C         139.7352  140.0335  167.7920 C.ar    1  UNL1       -0.0003
     15 C         139.5725  140.8012  169.0704 C.ar    1  UNL1        0.0011
     16 C         140.3387  142.0728  169.2843 C.ar    1  UNL1        0.0137
     17 C         141.2676  142.5768  168.2199 C.ar    1  UNL1       -0.0031
     18 C         141.4303  141.8091  166.9415 C.ar    1  UNL1       -0.0218
     19 C         142.3593  142.3131  165.8771 C.3     1  UNL1        0.0310
     20 C         140.1760  142.8405  170.5627 C.2     1  UNL1        0.0729
     21 O         140.3911  142.1571  171.8805 O.co2   1  UNL1       -0.5446
     22 O         139.7981  144.2916  170.5232 O.co2   1  UNL1       -0.5446
     23 C         142.5814  137.5920  160.8201 C.3     1  UNL1        0.2525
     24 O         141.3150  137.4668  161.6142 O.3     1  UNL1       -0.4714
     25 N         137.8041  141.5082  157.8604 N.pl3   1  UNL1       -0.2747
     26 C         136.6893  140.7324  157.2237 C.3     1  UNL1        0.1151
     27 C         138.2818  142.7852  157.2350 C.3     1  UNL1        0.1151
     28 C         141.9514  141.1409  160.9692 C.3     1  UNL1        0.1428
     29 N         142.7752  141.8853  159.9606 N.am    1  UNL1       -0.2380
     30 C         143.1082  143.3474  160.0006 C.2     1  UNL1        0.4055
     31 O         142.6760  144.3216  161.0561 O.2     1  UNL1       -0.2262
     32 O         143.9494  143.6642  158.7997 O.3     1  UNL1       -0.4320
     33 C         144.1362  142.3979  158.0175 C.3     1  UNL1        0.2107
     34 C         143.4105  141.2985  158.7350 C.3     1  UNL1        0.1233
     35 C         143.3336  139.8642  158.3029 C.3     1  UNL1        0.0258
     36 C         144.9124  142.2559  156.7419 C.ar    1  UNL1        0.0198
     37 C         144.1922  142.2090  155.4269 C.ar    1  UNL1        0.0106
     38 C         144.9684  142.0670  154.1513 C.ar    1  UNL1        0.0574
     39 CL        144.2481  142.0201  152.8364 Cl      1  UNL1       -0.0823
     40 C         146.4648  141.9719  154.1906 C.ar    1  UNL1        0.0152
     41 C         147.1851  142.0188  155.5056 C.ar    1  UNL1        0.0721
     42 C         146.4088  142.1608  156.7812 C.ar    1  UNL1        0.0031
     43 C         148.6816  141.9237  155.5448 C.3     1  UNL1        0.4186
     44 F         150.1781  141.8286  155.5840 F       1  UNL1       -0.1659
     45 F         148.6865  141.4181  154.1326 F       1  UNL1       -0.1659
     46 F         148.6767  142.4293  156.9570 F       1  UNL1       -0.1659
@<TRIPOS>UNITY_ATOM_ATTR
21 1
charge -1
@<TRIPOS>BOND
     1    23    24    1
     2    24     7    1
     3     7     8   ar
     4     8     9   ar
     5     9    10   ar
     6    10    13    1
     7    13    14   ar
     8    14    15   ar
     9    15    16   ar
    10    16    20    1
    11    20    21   ar
    12    20    22   ar
    13    16    17   ar
    14    17    18   ar
    15    18    19    1
    16    10    11   ar
    17    11    12   ar
    18    12     1    1
    19     1     2   ar
    20     2     3   ar
    21     3     4   ar
    22     4    25    1
    23    25    26    1
    24    25    27    1
    25     4     5   ar
    26     5     6   ar
    27     6    28    1
    28    28    29    1
    29    29    30   am
    30    30    31    2
    31    30    32    1
    32    32    33    1
    33    33    36    1
    34    36    37   ar
    35    37    38   ar
    36    38    39    1
    37    38    40   ar
    38    40    41   ar
    39    41    43    1
    40    43    44    1
    41    43    45    1
    42    43    46    1
    43    41    42   ar
    44    33    34    1
    45    34    35    1
    46    12     7   ar
    47     6     1   ar
    48    34    29    1
    49    18    13   ar
    50    42    36   ar
@<TRIPOS>MOLECULE
*****
 46 50 0 0 0
SMALL
GASTEIGER

@<TRIPOS>ATOM
      1 C         142.3226  141.5844  159.5712 C.ar    1  UNL1        0.0375
      2 C         143.2478  142.5256  158.8584 C.ar    1  UNL1        0.1031
      3 N         142.7096  143.4605  157.8162 N.ar    1  UNL1       -0.2121
      4 C         141.2462  143.4543  157.4868 C.ar    1  UNL1        0.2200
      5 N         140.3210  142.5131  158.1997 N.ar    1  UNL1       -0.2163
      6 C         140.8593  141.5781  159.2419 C.ar    1  UNL1        0.0836
      7 C         143.4402  139.3268  160.2072 C.ar    1  UNL1        0.1387
      8 C         143.9784  138.3919  161.2494 C.ar    1  UNL1        0.0369
      9 C         143.9373  138.7796  162.6979 C.ar    1  UNL1        0.0031
     10 C         143.3580  140.1022  163.1041 C.ar    1  UNL1       -0.0001
     11 C         142.8198  141.0371  162.0619 C.ar    1  UNL1        0.0031
     12 C         142.8609  140.6494  160.6134 C.ar    1  UNL1        0.0367
     13 C         143.3168  140.4898  164.5526 C.ar    1  UNL1       -0.0039
     14 C         142.7938  139.5231  165.5732 C.ar    1  UNL1       -0.0003
     15 C         142.7527  139.9108  167.0216 C.ar    1  UNL1        0.0011
     16 C         143.2346  141.2652  167.4495 C.ar    1  UNL1        0.0137
     17 C         143.7577  142.2320  166.4288 C.ar    1  UNL1       -0.0031
     18 C         143.7988  141.8443  164.9804 C.ar    1  UNL1       -0.0218
     19 C         144.3219  142.8112  163.9598 C.3     1  UNL1        0.0310
     20 C         143.1935  141.6529  168.8979 C.2     1  UNL1        0.0729
     21 O         142.9437  143.0802  169.2855 O.co2   1  UNL1       -0.5446
     22 O         143.4022  140.6133  169.9588 O.co2   1  UNL1       -0.5446
     23 C         142.3801  138.1052  158.1740 C.3     1  UNL1        0.2525
     24 O         143.4813  138.9391  158.7587 O.3     1  UNL1       -0.4714
     25 N         140.7080  144.3893  156.4446 N.pl3   1  UNL1       -0.2747
     26 C         139.2985  144.2355  155.9551 C.3     1  UNL1        0.1151
     27 C         141.5794  145.4780  155.8920 C.3     1  UNL1        0.1151
     28 C         139.9341  140.6369  159.9548 C.3     1  UNL1        0.1428
     29 N         139.4438  140.9677  161.3333 N.am    1  UNL1       -0.2380
     30 C         138.7842  142.2487  161.7506 C.2     1  UNL1        0.4055
     31 O         138.4992  143.4237  160.8629 O.2     1  UNL1       -0.2262
     32 O         138.4597  142.1483  163.2118 O.3     1  UNL1       -0.4320
     33 C         138.9188  140.8053  163.6973 C.3     1  UNL1        0.2107
     34 C         139.5269  140.0757  162.5364 C.3     1  UNL1        0.1233
     35 C         140.1150  138.6963  162.5721 C.3     1  UNL1        0.0258
     36 C         138.7919  140.2836  165.0978 C.ar    1  UNL1        0.0198
     37 C         138.1142  138.9694  165.3502 C.ar    1  UNL1        0.0106
     38 C         137.9873  138.4477  166.7507 C.ar    1  UNL1        0.0574
     39 CL        137.3096  137.1335  167.0030 Cl      1  UNL1       -0.0823
     40 C         138.5382  139.2400  167.8991 C.ar    1  UNL1        0.0152
     41 C         139.2160  140.5543  167.6468 C.ar    1  UNL1        0.0721
     42 C         139.3428  141.0759  166.2461 C.ar    1  UNL1        0.0031
     43 C         139.7669  141.3467  168.7951 C.3     1  UNL1        0.4186
     44 F         140.3177  142.1390  169.9434 F       1  UNL1       -0.1659
     45 F         139.3605  140.2567  169.7421 F       1  UNL1       -0.1659
     46 F         140.1732  142.4366  167.8481 F       1  UNL1       -0.1659
@<TRIPOS>UNITY_ATOM_ATTR
21 1
charge -1
@<TRIPOS>BOND
     1    23    24    1
     2    24     7    1
     3     7     8   ar
     4     8     9   ar
     5     9    10   ar
     6    10    13    1
     7    13    14   ar
     8    14    15   ar
     9    15    16   ar
    10    16    20    1
    11    20    21   ar
    12    20    22   ar
    13    16    17   ar
    14    17    18   ar
    15    18    19    1
    16    10    11   ar
    17    11    12   ar
    18    12     1    1
    19     1     2   ar
    20     2     3   ar
    21     3     4   ar
    22     4    25    1
    23    25    26    1
    24    25    27    1
    25     4     5   ar
    26     5     6   ar
    27     6    28    1
    28    28    29    1
    29    29    30   am
    30    30    31    2
    31    30    32    1
    32    32    33    1
    33    33    36    1
    34    36    37   ar
    35    37    38   ar
    36    38    39    1
    37    38    40   ar
    38    40    41   ar
    39    41    43    1
    40    43    44    1
    41    43    45    1
    42    43    46    1
    43    41    42   ar
    44    33    34    1
    45    34    35    1
    46    12     7   ar
    47     6     1   ar
    48    34    29    1
    49    18    13   ar
    50    42    36   ar
@<TRIPOS>MOLECULE
*****
 46 50 0 0 0
SMALL
GASTEIGER

@<TRIPOS>ATOM
      1 C         142.7274  140.2597  160.6116 C.ar    1  UNL1        0.0375
      2 C         143.6678  139.1728  160.1824 C.ar    1  UNL1        0.1031
      3 N         143.2817  138.2427  159.0707 N.ar    1  UNL1       -0.2121
      4 C         141.9551  138.3995  158.3883 C.ar    1  UNL1        0.2200
      5 N         141.0147  139.4864  158.8175 N.ar    1  UNL1       -0.2163
      6 C         141.4009  140.4165  159.9292 C.ar    1  UNL1        0.0836
      7 C         143.6418  142.5577  161.4074 C.ar    1  UNL1        0.1387
      8 C         144.0279  143.4878  162.5190 C.ar    1  UNL1        0.0369
      9 C         143.8859  143.0499  163.9467 C.ar    1  UNL1        0.0031
     10 C         143.3578  141.6820  164.2626 C.ar    1  UNL1       -0.0001
     11 C         142.9716  140.7520  163.1509 C.ar    1  UNL1        0.0031
     12 C         143.1136  141.1898  161.7233 C.ar    1  UNL1        0.0367
     13 C         143.2158  141.2442  165.6902 C.ar    1  UNL1       -0.0039
     14 C         143.2918  142.2550  166.7958 C.ar    1  UNL1       -0.0003
     15 C         143.1498  141.8171  168.2235 C.ar    1  UNL1        0.0011
     16 C         142.9318  140.3685  168.5455 C.ar    1  UNL1        0.0137
     17 C         142.8558  139.3576  167.4399 C.ar    1  UNL1       -0.0031
     18 C         142.9978  139.7955  166.0123 C.ar    1  UNL1       -0.0218
     19 C         142.9218  138.7846  164.9066 C.3     1  UNL1        0.0310
     20 C         142.7898  139.9306  169.9731 C.2     1  UNL1        0.0729
     21 O         142.8507  138.4726  170.3200 O.co2   1  UNL1       -0.5446
     22 O         142.5869  140.9508  171.0539 O.co2   1  UNL1       -0.5446
     23 C         145.0228  142.6491  159.2087 C.3     1  UNL1        0.2525
     24 O         143.7837  142.9956  159.9797 O.3     1  UNL1       -0.4714
     25 N         141.5690  137.4694  157.2767 N.pl3   1  UNL1       -0.2747
     26 C         142.4949  136.3616  156.8699 C.3     1  UNL1        0.1151
     27 C         140.2569  137.6471  156.5718 C.3     1  UNL1        0.1151
     28 C         140.4605  141.5034  160.3585 C.3     1  UNL1        0.1428
     29 N         140.1925  141.7307  161.8168 N.am    1  UNL1       -0.2380
     30 C         140.2375  143.0517  162.5260 C.2     1  UNL1        0.4055
     31 O         140.5583  144.3773  161.9015 O.2     1  UNL1       -0.2262
     32 O         139.9054  142.8144  163.9695 O.3     1  UNL1       -0.4320
     33 C         139.6552  141.3467  164.1522 C.3     1  UNL1        0.2107
     34 C         139.8326  140.6770  162.8218 C.3     1  UNL1        0.1233
     35 C         139.6775  139.2110  162.5450 C.3     1  UNL1        0.0258
     36 C         139.2913  140.6680  165.4394 C.ar    1  UNL1        0.0198
     37 C         138.5811  139.3469  165.4161 C.ar    1  UNL1        0.0106
     38 C         138.2173  138.6682  166.7033 C.ar    1  UNL1        0.0574
     39 CL        137.5072  137.3472  166.6799 Cl      1  UNL1       -0.0823
     40 C         138.5637  139.3104  168.0138 C.ar    1  UNL1        0.0152
     41 C         139.2739  140.6315  168.0372 C.ar    1  UNL1        0.0721
     42 C         139.6377  141.3102  166.7499 C.ar    1  UNL1        0.0031
     43 C         139.6202  141.2737  169.3478 C.3     1  UNL1        0.4186
     44 F         139.9666  141.9160  170.6583 F       1  UNL1       -0.1659
     45 F         139.2330  140.0155  170.0667 F       1  UNL1       -0.1659
     46 F         140.0075  142.5320  168.6288 F       1  UNL1       -0.1659
@<TRIPOS>UNITY_ATOM_ATTR
21 1
charge -1
@<TRIPOS>BOND
     1    23    24    1
     2    24     7    1
     3     7     8   ar
     4     8     9   ar
     5     9    10   ar
     6    10    13    1
     7    13    14   ar
     8    14    15   ar
     9    15    16   ar
    10    16    20    1
    11    20    21   ar
    12    20    22   ar
    13    16    17   ar
    14    17    18   ar
    15    18    19    1
    16    10    11   ar
    17    11    12   ar
    18    12     1    1
    19     1     2   ar
    20     2     3   ar
    21     3     4   ar
    22     4    25    1
    23    25    26    1
    24    25    27    1
    25     4     5   ar
    26     5     6   ar
    27     6    28    1
    28    28    29    1
    29    29    30   am
    30    30    31    2
    31    30    32    1
    32    32    33    1
    33    33    36    1
    34    36    37   ar
    35    37    38   ar
    36    38    39    1
    37    38    40   ar
    38    40    41   ar
    39    41    43    1
    40    43    44    1
    41    43    45    1
    42    43    46    1
    43    41    42   ar
    44    33    34    1
    45    34    35    1
    46    12     7   ar
    47     6     1   ar
    48    34    29    1
    49    18    13   ar
    50    42    36   ar
@<TRIPOS>MOLECULE
*****
 46 50 0 0 0
SMALL
GASTEIGER

@<TRIPOS>ATOM
      1 C         140.2253  138.5779  157.3043 C.ar    1  UNL1        0.0375
      2 C         139.5839  137.3032  156.8420 C.ar    1  UNL1        0.1031
      3 N         138.7534  137.2915  155.5930 N.ar    1  UNL1       -0.2121
      4 C         138.5643  138.5545  154.8062 C.ar    1  UNL1        0.2200
      5 N         139.2057  139.8292  155.2684 N.ar    1  UNL1       -0.2163
      6 C         140.0362  139.8409  156.5175 C.ar    1  UNL1        0.0836
      7 C         142.5515  138.5231  158.4602 C.ar    1  UNL1        0.1387
      8 C         143.3819  138.5347  159.7093 C.ar    1  UNL1        0.0369
      9 C         142.7168  138.6129  161.0515 C.ar    1  UNL1        0.0031
     10 C         141.2212  138.6795  161.1446 C.ar    1  UNL1       -0.0001
     11 C         140.3907  138.6678  159.8956 C.ar    1  UNL1        0.0031
     12 C         141.0559  138.5896  158.5534 C.ar    1  UNL1        0.0367
     13 C         140.5560  138.7577  162.4868 C.ar    1  UNL1       -0.0039
     14 C         139.5254  137.7388  162.8736 C.ar    1  UNL1       -0.0003
     15 C         138.8603  137.8170  164.2158 C.ar    1  UNL1        0.0011
     16 C         139.2258  138.9141  165.1712 C.ar    1  UNL1        0.0137
     17 C         140.2564  139.9329  164.7844 C.ar    1  UNL1       -0.0031
     18 C         140.9215  139.8547  163.4422 C.ar    1  UNL1       -0.0218
     19 C         141.9522  140.8737  163.0554 C.3     1  UNL1        0.0310
     20 C         138.5606  138.9923  166.5134 C.2     1  UNL1        0.0729
     21 O         139.1336  139.8725  167.5842 O.co2   1  UNL1       -0.5446
     22 O         137.3224  138.1903  166.7847 O.co2   1  UNL1       -0.5446
     23 C         143.9021  139.6517  156.5493 C.3     1  UNL1        0.2525
     24 O         143.2166  138.4449  157.1180 O.3     1  UNL1       -0.4714
     25 N         137.7338  138.5428  153.5572 N.pl3   1  UNL1       -0.2747
     26 C         137.2764  137.2392  152.9728 C.3     1  UNL1        0.1151
     27 C         137.3607  139.8347  152.8925 C.3     1  UNL1        0.1151
     28 C         140.6776  141.1156  156.9798 C.3     1  UNL1        0.1428
     29 N         140.0710  141.8936  158.1098 N.am    1  UNL1       -0.2380
     30 C         138.6505  142.3686  158.1905 C.2     1  UNL1        0.4055
     31 O         137.5872  142.1491  157.1555 O.2     1  UNL1       -0.2262
     32 O         138.4800  143.1018  159.4881 O.3     1  UNL1       -0.4320
     33 C         139.7951  143.0798  160.2092 C.3     1  UNL1        0.2107
     34 C         140.7784  142.3331  159.3574 C.3     1  UNL1        0.1233
     35 C         142.2166  142.0718  159.6939 C.3     1  UNL1        0.0258
     36 C         140.0774  143.6962  161.5471 C.ar    1  UNL1        0.0198
     37 C         141.4663  144.1501  161.8859 C.ar    1  UNL1        0.0106
     38 C         141.7486  144.7666  163.2238 C.ar    1  UNL1        0.0574
     39 CL        143.1376  145.2205  163.5625 Cl      1  UNL1       -0.0823
     40 C         140.6419  144.9292  164.2232 C.ar    1  UNL1        0.0152
     41 C         139.2528  144.4753  163.8845 C.ar    1  UNL1        0.0721
     42 C         138.9706  143.8588  162.5465 C.ar    1  UNL1        0.0031
     43 C         138.1461  144.6379  164.8839 C.3     1  UNL1        0.4186
     44 F         137.0394  144.8005  165.8833 F       1  UNL1       -0.1659
     45 F         137.1996  143.9461  163.9483 F       1  UNL1       -0.1659
     46 F         139.0926  145.3297  165.8195 F       1  UNL1       -0.1659
@<TRIPOS>UNITY_ATOM_ATTR
21 1
charge -1
@<TRIPOS>BOND
     1    23    24    1
     2    24     7    1
     3     7     8   ar
     4     8     9   ar
     5     9    10   ar
     6    10    13    1
     7    13    14   ar
     8    14    15   ar
     9    15    16   ar
    10    16    20    1
    11    20    21   ar
    12    20    22   ar
    13    16    17   ar
    14    17    18   ar
    15    18    19    1
    16    10    11   ar
    17    11    12   ar
    18    12     1    1
    19     1     2   ar
    20     2     3   ar
    21     3     4   ar
    22     4    25    1
    23    25    26    1
    24    25    27    1
    25     4     5   ar
    26     5     6   ar
    27     6    28    1
    28    28    29    1
    29    29    30   am
    30    30    31    2
    31    30    32    1
    32    32    33    1
    33    33    36    1
    34    36    37   ar
    35    37    38   ar
    36    38    39    1
    37    38    40   ar
    38    40    41   ar
    39    41    43    1
    40    43    44    1
    41    43    45    1
    42    43    46    1
    43    41    42   ar
    44    33    34    1
    45    34    35    1
    46    12     7   ar
    47     6     1   ar
    48    34    29    1
    49    18    13   ar
    50    42    36   ar
@<TRIPOS>MOLECULE
*****
 46 50 0 0 0
SMALL
GASTEIGER

@<TRIPOS>ATOM
      1 C         140.1785  138.8583  157.6137 C.ar    1  UNL1        0.0375
      2 C         139.5327  137.7639  156.8168 C.ar    1  UNL1        0.1031
      3 N         138.7758  138.0944  155.5646 N.ar    1  UNL1       -0.2121
      4 C         138.6647  139.5193  155.1094 C.ar    1  UNL1        0.2200
      5 N         139.3105  140.6138  155.9063 N.ar    1  UNL1       -0.2163
      6 C         140.0675  140.2832  157.1585 C.ar    1  UNL1        0.0836
      7 C         142.3572  138.0576  158.7808 C.ar    1  UNL1        0.1387
      8 C         143.1141  137.7271  160.0329 C.ar    1  UNL1        0.0369
      9 C         142.4491  137.8668  161.3702 C.ar    1  UNL1        0.0031
     10 C         141.0273  138.3370  161.4553 C.ar    1  UNL1       -0.0001
     11 C         140.2705  138.6675  160.2032 C.ar    1  UNL1        0.0031
     12 C         140.9354  138.5278  158.8659 C.ar    1  UNL1        0.0367
     13 C         140.3623  138.4768  162.7926 C.ar    1  UNL1       -0.0039
     14 C         141.0995  138.0913  164.0407 C.ar    1  UNL1       -0.0003
     15 C         140.4345  138.2311  165.3780 C.ar    1  UNL1        0.0011
     16 C         139.0324  138.7563  165.4671 C.ar    1  UNL1        0.0137
     17 C         138.2952  139.1418  164.2190 C.ar    1  UNL1       -0.0031
     18 C         138.9601  139.0020  162.8817 C.ar    1  UNL1       -0.0218
     19 C         138.2229  139.3875  161.6335 C.3     1  UNL1        0.0310
     20 C         138.3674  138.8960  166.8044 C.2     1  UNL1        0.0729
     21 O         137.1026  138.1440  167.0953 O.co2   1  UNL1       -0.5446
     22 O         138.9672  139.7878  167.8507 O.co2   1  UNL1       -0.5446
     23 C         143.0866  136.5769  156.7744 C.3     1  UNL1        0.2525
     24 O         143.0222  137.9178  157.4435 O.3     1  UNL1       -0.4714
     25 N         137.9078  139.8498  153.8573 N.pl3   1  UNL1       -0.2747
     26 C         138.0185  141.2183  153.2531 C.3     1  UNL1        0.1151
     27 C         137.0403  138.8118  153.2093 C.3     1  UNL1        0.1151
     28 C         140.7133  141.3777  157.9555 C.3     1  UNL1        0.1428
     29 N         140.0430  141.9014  159.1910 N.am    1  UNL1       -0.2380
     30 C         138.6434  142.4341  159.2762 C.2     1  UNL1        0.4055
     31 O         137.6683  142.5367  158.1410 O.2     1  UNL1       -0.2262
     32 O         138.3900  142.8464  160.6961 O.3     1  UNL1       -0.4320
     33 C         139.6331  142.5684  161.4883 C.3     1  UNL1        0.2107
     34 C         140.6546  141.9844  160.5581 C.3     1  UNL1        0.1233
     35 C         142.0439  141.5582  160.9297 C.3     1  UNL1        0.0258
     36 C         139.8215  142.8287  162.9534 C.ar    1  UNL1        0.0198
     37 C         138.9963  143.8754  163.6415 C.ar    1  UNL1        0.0106
     38 C         139.1847  144.1357  165.1066 C.ar    1  UNL1        0.0574
     39 CL        138.3595  145.1825  165.7945 Cl      1  UNL1       -0.0823
     40 C         140.1983  143.3493  165.8838 C.ar    1  UNL1        0.0152
     41 C         141.0235  142.3024  165.1959 C.ar    1  UNL1        0.0721
     42 C         140.8350  142.0422  163.7307 C.ar    1  UNL1        0.0031
     43 C         142.0371  141.5160  165.9731 C.3     1  UNL1        0.4186
     44 F         143.0507  140.7295  166.7503 F       1  UNL1       -0.1659
     45 F         141.5251  142.1166  167.2486 F       1  UNL1       -0.1659
     46 F         142.5491  140.9153  164.6976 F       1  UNL1       -0.1659
@<TRIPOS>UNITY_ATOM_ATTR
21 1
charge -1
@<TRIPOS>BOND
     1    23    24    1
     2    24     7    1
     3     7     8   ar
     4     8     9   ar
     5     9    10   ar
     6    10    13    1
     7    13    14   ar
     8    14    15   ar
     9    15    16   ar
    10    16    20    1
    11    20    21   ar
    12    20    22   ar
    13    16    17   ar
    14    17    18   ar
    15    18    19    1
    16    10    11   ar
    17    11    12   ar
    18    12     1    1
    19     1     2   ar
    20     2     3   ar
    21     3     4   ar
    22     4    25    1
    23    25    26    1
    24    25    27    1
    25     4     5   ar
    26     5     6   ar
    27     6    28    1
    28    28    29    1
    29    29    30   am
    30    30    31    2
    31    30    32    1
    32    32    33    1
    33    33    36    1
    34    36    37   ar
    35    37    38   ar
    36    38    39    1
    37    38    40   ar
    38    40    41   ar
    39    41    43    1
    40    43    44    1
    41    43    45    1
    42    43    46    1
    43    41    42   ar
    44    33    34    1
    45    34    35    1
    46    12     7   ar
    47     6     1   ar
    48    34    29    1
    49    18    13   ar
    50    42    36   ar
@<TRIPOS>MOLECULE
*****
 46 50 0 0 0
SMALL
GASTEIGER

@<TRIPOS>ATOM
      1 C         142.8386  140.5052  160.5514 C.ar    1  UNL1        0.0375
      2 C         143.7384  139.3857  160.1189 C.ar    1  UNL1        0.1031
      3 N         143.3082  138.4593  159.0204 N.ar    1  UNL1       -0.2121
      4 C         141.9780  138.6524  158.3544 C.ar    1  UNL1        0.2200
      5 N         141.0782  139.7719  158.7869 N.ar    1  UNL1       -0.2163
      6 C         141.5085  140.6983  159.8854 C.ar    1  UNL1        0.0836
      7 C         143.8697  142.7645  161.3147 C.ar    1  UNL1        0.1387
      8 C         144.2999  143.6908  162.4132 C.ar    1  UNL1        0.0369
      9 C         144.1295  143.2842  163.8470 C.ar    1  UNL1        0.0031
     10 C         143.5287  141.9512  164.1822 C.ar    1  UNL1       -0.0001
     11 C         143.0985  141.0249  163.0837 C.ar    1  UNL1        0.0031
     12 C         143.2689  141.4316  161.6499 C.ar    1  UNL1        0.0367
     13 C         143.3583  141.5446  165.6159 C.ar    1  UNL1       -0.0039
     14 C         143.4397  142.5754  166.7026 C.ar    1  UNL1       -0.0003
     15 C         143.2693  142.1688  168.1363 C.ar    1  UNL1        0.0011
     16 C         143.0174  140.7314  168.4834 C.ar    1  UNL1        0.0137
     17 C         142.9360  139.7007  167.3968 C.ar    1  UNL1       -0.0031
     18 C         143.1064  140.1073  165.9630 C.ar    1  UNL1       -0.0218
     19 C         143.0250  139.0764  164.8763 C.3     1  UNL1        0.0310
     20 C         142.8469  140.3248  169.9172 C.2     1  UNL1        0.0729
     21 O         142.5610  141.3623  170.9620 O.co2   1  UNL1       -0.5446
     22 O         142.9624  138.8807  170.3060 O.co2   1  UNL1       -0.5446
     23 C         145.2013  142.6507  159.0868 C.3     1  UNL1        0.2525
     24 O         144.0401  143.1711  159.8810 O.3     1  UNL1       -0.4714
     25 N         141.5478  137.7261  157.2559 N.pl3   1  UNL1       -0.2747
     26 C         142.5484  136.8161  156.6072 C.3     1  UNL1        0.1151
     27 C         140.1169  137.7097  156.8061 C.3     1  UNL1        0.1151
     28 C         140.6087  141.8178  160.3179 C.3     1  UNL1        0.1428
     29 N         140.3531  142.0535  161.7771 N.am    1  UNL1       -0.2380
     30 C         140.3961  143.3797  162.4767 C.2     1  UNL1        0.4055
     31 O         140.7022  144.7030  161.8400 O.2     1  UNL1       -0.2262
     32 O         140.0792  143.1503  163.9248 O.3     1  UNL1       -0.4320
     33 C         139.8403  141.6823  164.1201 C.3     1  UNL1        0.2107
     34 C         140.0096  141.0045  162.7928 C.3     1  UNL1        0.1233
     35 C         139.8615  139.5357  162.5276 C.3     1  UNL1        0.0258
     36 C         139.4932  141.0103  165.4153 C.ar    1  UNL1        0.0198
     37 C         139.8056  141.6852  166.7180 C.ar    1  UNL1        0.0106
     38 C         139.4584  141.0131  168.0132 C.ar    1  UNL1        0.0574
     39 CL        139.7708  141.6882  169.3157 Cl      1  UNL1       -0.0823
     40 C         138.7988  139.6660  168.0059 C.ar    1  UNL1        0.0152
     41 C         138.4864  138.9909  166.7033 C.ar    1  UNL1        0.0721
     42 C         138.8336  139.6631  165.4080 C.ar    1  UNL1        0.0031
     43 C         137.8268  137.6437  166.6960 C.3     1  UNL1        0.4186
     44 F         137.1672  136.2965  166.6887 F       1  UNL1       -0.1659
     45 F         138.7210  137.2120  165.5717 F       1  UNL1       -0.1659
     46 F         136.9326  138.0754  167.8203 F       1  UNL1       -0.1659
@<TRIPOS>UNITY_ATOM_ATTR
21 1
charge -1
@<TRIPOS>BOND
     1    23    24    1
     2    24     7    1
     3     7     8   ar
     4     8     9   ar
     5     9    10   ar
     6    10    13    1
     7    13    14   ar
     8    14    15   ar
     9    15    16   ar
    10    16    20    1
    11    20    21   ar
    12    20    22   ar
    13    16    17   ar
    14    17    18   ar
    15    18    19    1
    16    10    11   ar
    17    11    12   ar
    18    12     1    1
    19     1     2   ar
    20     2     3   ar
    21     3     4   ar
    22     4    25    1
    23    25    26    1
    24    25    27    1
    25     4     5   ar
    26     5     6   ar
    27     6    28    1
    28    28    29    1
    29    29    30   am
    30    30    31    2
    31    30    32    1
    32    32    33    1
    33    33    36    1
    34    36    37   ar
    35    37    38   ar
    36    38    39    1
    37    38    40   ar
    38    40    41   ar
    39    41    43    1
    40    43    44    1
    41    43    45    1
    42    43    46    1
    43    41    42   ar
    44    33    34    1
    45    34    35    1
    46    12     7   ar
    47     6     1   ar
    48    34    29    1
    49    18    13   ar
    50    42    36   ar
