@<TRIPOS>MOLECULE
*****
 27 30 0 0 0
SMALL
GASTEIGER

@<TRIPOS>ATOM
      1 C         139.3247  139.3105  166.5211 C.3     1  UNL1        0.3267
      2 N         138.6129  139.3732  167.8399 N.2     1  UNL1       -0.0293
      3 C         139.2215  140.1262  168.9856 C.2     1  UNL1        0.3199
      4 N         138.5097  140.1889  170.3044 N.pl3   1  UNL1       -0.2463
      5 C         140.5420  140.8165  168.8124 C.ar    1  UNL1        0.1156
      6 C         141.1506  141.5694  169.9581 C.ar    1  UNL1        0.0104
      7 C         142.4710  142.2596  169.7849 C.ar    1  UNL1        0.0004
      8 C         143.1828  142.1969  168.4660 C.ar    1  UNL1        0.0031
      9 C         142.5742  141.4439  167.3204 C.ar    1  UNL1        0.0373
     10 C         141.2538  140.7537  167.4936 C.ar    1  UNL1        0.1501
     11 O         140.6451  140.0007  166.3479 O.3     1  UNL1       -0.4394
     12 H         137.6430  139.7359  170.4181 H       1  UNL1        0.2884
     13 H         138.9091  140.6832  171.0564 H       1  UNL1        0.2884
     14 C         139.6126  138.9665  165.0898 C.ar    1  UNL1        0.0612
     15 C         140.2508  137.6528  164.7478 C.ar    1  UNL1        0.0034
     16 C         140.5388  137.3089  163.3165 C.ar    1  UNL1       -0.0001
     17 C         140.1886  138.2787  162.2270 C.ar    1  UNL1        0.0001
     18 C         139.5504  139.5923  162.5689 C.ar    1  UNL1        0.0029
     19 C         139.2624  139.9363  164.0002 C.ar    1  UNL1        0.0035
     20 C         139.2002  140.5621  161.4795 C.ar    1  UNL1        0.0384
     21 C         138.5438  141.8673  161.8198 C.ar    1  UNL1        0.1022
     22 N         138.1936  142.8371  160.7304 N.ar    1  UNL1       -0.2224
     23 C         138.4997  142.5019  159.3008 C.ar    1  UNL1        0.1989
     24 N         139.1560  141.1967  158.9605 N.ar    1  UNL1       -0.2224
     25 C         139.5062  140.2269  160.0498 C.ar    1  UNL1        0.1022
     26 C         137.3008  137.8806  167.3017 C.3     1  UNL1        0.0090
     27 C         138.1042  138.5008  166.1972 C.3     1  UNL1        0.0976
@<TRIPOS>BOND
     1    26    27    1
     2    27     1    1
     3     1    14    1
     4    14    15   ar
     5    15    16   ar
     6    16    17   ar
     7    17    18   ar
     8    18    20    1
     9    20    21   ar
    10    21    22   ar
    11    22    23   ar
    12    23    24   ar
    13    24    25   ar
    14    18    19   ar
    15     1     2    1
    16     2     3    2
    17     3     4    1
    18     3     5    1
    19     5     6   ar
    20     6     7   ar
    21     7     8   ar
    22     8     9   ar
    23     9    10   ar
    24    10    11    1
    25    11     1    1
    26    19    14   ar
    27    10     5   ar
    28    25    20   ar
    29     4    12    1
    30     4    13    1
@<TRIPOS>MOLECULE
*****
 27 30 0 0 0
SMALL
GASTEIGER

@<TRIPOS>ATOM
      1 C         139.9222  139.6938  164.4626 C.3     1  UNL1        0.3267
      2 N         138.9178  139.3807  163.3934 N.2     1  UNL1       -0.0293
      3 C         138.1985  140.4937  162.6909 C.2     1  UNL1        0.3199
      4 N         137.1941  140.1806  161.6217 N.pl3   1  UNL1       -0.2463
      5 C         138.4835  141.9201  163.0575 C.ar    1  UNL1        0.1156
      6 C         137.7642  143.0332  162.3550 C.ar    1  UNL1        0.0104
      7 C         138.0492  144.4594  162.7216 C.ar    1  UNL1        0.0004
      8 C         139.0536  144.7726  163.7908 C.ar    1  UNL1        0.0031
      9 C         139.7730  143.6595  164.4933 C.ar    1  UNL1        0.0373
     10 C         139.4879  142.2333  164.1267 C.ar    1  UNL1        0.1501
     11 O         140.2072  141.1201  164.8292 O.3     1  UNL1       -0.4394
     12 H         137.0070  139.2444  161.3811 H       1  UNL1        0.2884
     13 H         136.7219  140.9111  161.1606 H       1  UNL1        0.2884
     14 C         140.9517  139.4867  165.5335 C.ar    1  UNL1        0.0612
     15 C         142.1334  138.5993  165.2765 C.ar    1  UNL1        0.0034
     16 C         143.1629  138.3921  166.3475 C.ar    1  UNL1       -0.0001
     17 C         143.0109  139.0725  167.6756 C.ar    1  UNL1        0.0001
     18 C         141.8293  139.9599  167.9328 C.ar    1  UNL1        0.0029
     19 C         140.7996  140.1671  166.8618 C.ar    1  UNL1        0.0035
     20 C         141.6771  140.6403  169.2609 C.ar    1  UNL1        0.0384
     21 C         140.7560  140.0663  170.2964 C.ar    1  UNL1        0.1022
     22 N         140.6039  140.7467  171.6245 N.ar    1  UNL1       -0.2224
     23 C         141.3728  142.0009  171.9172 C.ar    1  UNL1        0.1989
     24 N         142.2938  142.5749  170.8817 N.ar    1  UNL1       -0.2224
     25 C         142.4460  141.8945  169.5536 C.ar    1  UNL1        0.1022
     26 C         138.8763  137.3927  165.0635 C.3     1  UNL1        0.0090
     27 C         139.9947  138.1956  164.4679 C.3     1  UNL1        0.0976
@<TRIPOS>BOND
     1    26    27    1
     2    27     1    1
     3     1    14    1
     4    14    15   ar
     5    15    16   ar
     6    16    17   ar
     7    17    18   ar
     8    18    20    1
     9    20    21   ar
    10    21    22   ar
    11    22    23   ar
    12    23    24   ar
    13    24    25   ar
    14    18    19   ar
    15     1     2    1
    16     2     3    2
    17     3     4    1
    18     3     5    1
    19     5     6   ar
    20     6     7   ar
    21     7     8   ar
    22     8     9   ar
    23     9    10   ar
    24    10    11    1
    25    11     1    1
    26    19    14   ar
    27    10     5   ar
    28    25    20   ar
    29     4    12    1
    30     4    13    1
@<TRIPOS>MOLECULE
*****
 27 30 0 0 0
SMALL
GASTEIGER

@<TRIPOS>ATOM
      1 C         139.2799  139.9496  166.9534 C.3     1  UNL1        0.3267
      2 N         138.8774  139.5180  168.3324 N.2     1  UNL1       -0.0293
      3 C         139.6935  139.9395  169.5183 C.2     1  UNL1        0.3199
      4 N         139.2910  139.5080  170.8973 N.pl3   1  UNL1       -0.2463
      5 C         140.9122  140.7925  169.3251 C.ar    1  UNL1        0.1156
      6 C         141.7283  141.2139  170.5110 C.ar    1  UNL1        0.0104
      7 C         142.9470  142.0669  170.3178 C.ar    1  UNL1        0.0004
      8 C         143.3494  142.4984  168.9387 C.ar    1  UNL1        0.0031
      9 C         142.5333  142.0770  167.7529 C.ar    1  UNL1        0.0373
     10 C         141.3147  141.2240  167.9461 C.ar    1  UNL1        0.1501
     11 O         140.4985  140.8025  166.7602 O.3     1  UNL1       -0.4394
     12 H         138.4912  138.9481  171.0241 H       1  UNL1        0.2884
     13 H         139.8267  139.7846  171.6757 H       1  UNL1        0.2884
     14 C         139.2563  140.1034  165.4615 C.ar    1  UNL1        0.0612
     15 C         139.0477  138.9029  164.5869 C.ar    1  UNL1        0.0034
     16 C         139.0241  139.0567  163.0950 C.ar    1  UNL1       -0.0001
     17 C         139.2092  140.4112  162.4777 C.ar    1  UNL1        0.0001
     18 C         139.4179  141.6118  163.3522 C.ar    1  UNL1        0.0029
     19 C         139.4415  141.4580  164.8442 C.ar    1  UNL1        0.0035
     20 C         139.6030  142.9663  162.7350 C.ar    1  UNL1        0.0384
     21 C         138.4635  143.9415  162.7107 C.ar    1  UNL1        0.1022
     22 N         138.6486  145.2960  162.0935 N.ar    1  UNL1       -0.2224
     23 C         139.9731  145.6754  161.5006 C.ar    1  UNL1        0.1989
     24 N         141.1127  144.7003  161.5249 N.ar    1  UNL1       -0.2224
     25 C         140.9276  143.3458  162.1421 C.ar    1  UNL1        0.1022
     26 C         137.3503  138.3824  167.7087 C.3     1  UNL1        0.0090
     27 C         138.0531  139.1500  166.6285 C.3     1  UNL1        0.0976
@<TRIPOS>BOND
     1    26    27    1
     2    27     1    1
     3     1    14    1
     4    14    15   ar
     5    15    16   ar
     6    16    17   ar
     7    17    18   ar
     8    18    20    1
     9    20    21   ar
    10    21    22   ar
    11    22    23   ar
    12    23    24   ar
    13    24    25   ar
    14    18    19   ar
    15     1     2    1
    16     2     3    2
    17     3     4    1
    18     3     5    1
    19     5     6   ar
    20     6     7   ar
    21     7     8   ar
    22     8     9   ar
    23     9    10   ar
    24    10    11    1
    25    11     1    1
    26    19    14   ar
    27    10     5   ar
    28    25    20   ar
    29     4    12    1
    30     4    13    1
@<TRIPOS>MOLECULE
*****
 27 30 0 0 0
SMALL
GASTEIGER

@<TRIPOS>ATOM
      1 C         139.9425  139.4045  166.8392 C.3     1  UNL1        0.3267
      2 N         138.9259  139.4405  167.9415 N.2     1  UNL1       -0.0293
      3 C         139.2315  140.1625  169.2203 C.2     1  UNL1        0.3199
      4 N         138.2148  140.1986  170.3227 N.pl3   1  UNL1       -0.2463
      5 C         140.5537  140.8485  169.3968 C.ar    1  UNL1        0.1156
      6 C         140.8593  141.5705  170.6755 C.ar    1  UNL1        0.0104
      7 C         142.1815  142.2565  170.8520 C.ar    1  UNL1        0.0004
      8 C         143.1982  142.2205  169.7496 C.ar    1  UNL1        0.0031
      9 C         142.8926  141.4985  168.4708 C.ar    1  UNL1        0.0373
     10 C         141.5704  140.8125  168.2944 C.ar    1  UNL1        0.1501
     11 O         141.2647  140.0905  167.0156 O.3     1  UNL1       -0.4394
     12 H         137.3470  139.7483  170.2069 H       1  UNL1        0.2884
     13 H         138.4154  140.6725  171.1620 H       1  UNL1        0.2884
     14 C         140.5764  139.0926  165.5160 C.ar    1  UNL1        0.0612
     15 C         140.3649  137.7503  164.8808 C.ar    1  UNL1        0.0034
     16 C         140.9988  137.4384  163.5577 C.ar    1  UNL1       -0.0001
     17 C         141.8442  138.4689  162.8695 C.ar    1  UNL1        0.0001
     18 C         142.0557  139.8112  163.5046 C.ar    1  UNL1        0.0029
     19 C         141.4218  140.1232  164.8279 C.ar    1  UNL1        0.0035
     20 C         142.9010  140.8417  162.8166 C.ar    1  UNL1        0.0384
     21 C         144.3567  140.5753  162.5712 C.ar    1  UNL1        0.1022
     22 N         145.2020  141.6059  161.8831 N.ar    1  UNL1       -0.2224
     23 C         144.5918  142.9026  161.4405 C.ar    1  UNL1        0.1989
     24 N         143.1362  143.1690  161.6859 N.ar    1  UNL1       -0.2224
     25 C         142.2908  142.1385  162.3739 C.ar    1  UNL1        0.1022
     26 C         137.5783  138.3346  166.9657 C.3     1  UNL1        0.0090
     27 C         138.8404  138.6102  166.2032 C.3     1  UNL1        0.0976
@<TRIPOS>BOND
     1    26    27    1
     2    27     1    1
     3     1    14    1
     4    14    15   ar
     5    15    16   ar
     6    16    17   ar
     7    17    18   ar
     8    18    20    1
     9    20    21   ar
    10    21    22   ar
    11    22    23   ar
    12    23    24   ar
    13    24    25   ar
    14    18    19   ar
    15     1     2    1
    16     2     3    2
    17     3     4    1
    18     3     5    1
    19     5     6   ar
    20     6     7   ar
    21     7     8   ar
    22     8     9   ar
    23     9    10   ar
    24    10    11    1
    25    11     1    1
    26    19    14   ar
    27    10     5   ar
    28    25    20   ar
    29     4    12    1
    30     4    13    1
@<TRIPOS>MOLECULE
*****
 27 30 0 0 0
SMALL
GASTEIGER

@<TRIPOS>ATOM
      1 C         139.2842  142.9030  163.9271 C.3     1  UNL1        0.3267
      2 N         139.0122  144.2024  163.2289 N.2     1  UNL1       -0.0293
      3 C         139.8462  144.6096  162.0506 C.2     1  UNL1        0.3199
      4 N         139.5741  145.9090  161.3524 N.pl3   1  UNL1       -0.2463
      5 C         140.9523  143.7174  161.5704 C.ar    1  UNL1        0.1156
      6 C         141.7863  144.1246  160.3920 C.ar    1  UNL1        0.0104
      7 C         142.8923  143.2323  159.9119 C.ar    1  UNL1        0.0004
      8 C         143.1644  141.9329  160.6101 C.ar    1  UNL1        0.0031
      9 C         142.3303  141.5257  161.7884 C.ar    1  UNL1        0.0373
     10 C         141.2243  142.4179  162.2686 C.ar    1  UNL1        0.1501
     11 O         140.3902  142.0107  163.4470 O.3     1  UNL1       -0.4394
     12 H         138.8482  146.4946  161.6675 H       1  UNL1        0.2884
     13 H         140.1216  146.1763  160.5790 H       1  UNL1        0.2884
     14 C         139.1567  141.7777  164.9107 C.ar    1  UNL1        0.0612
     15 C         138.3095  140.5848  164.5801 C.ar    1  UNL1        0.0034
     16 C         138.1821  139.4596  165.5636 C.ar    1  UNL1       -0.0001
     17 C         138.9018  139.5271  166.8779 C.ar    1  UNL1        0.0001
     18 C         139.7490  140.7199  167.2087 C.ar    1  UNL1        0.0029
     19 C         139.8765  141.8453  166.2251 C.ar    1  UNL1        0.0035
     20 C         140.4687  140.7875  168.5230 C.ar    1  UNL1        0.0384
     21 C         139.6893  140.8109  169.8045 C.ar    1  UNL1        0.1022
     22 N         140.4091  140.8785  171.1187 N.ar    1  UNL1       -0.2224
     23 C         141.9080  140.9228  171.1517 C.ar    1  UNL1        0.1989
     24 N         142.6874  140.8994  169.8702 N.ar    1  UNL1       -0.2224
     25 C         141.9676  140.8318  168.5559 C.ar    1  UNL1        0.1022
     26 C         138.1815  144.7800  165.3451 C.3     1  UNL1        0.0090
     27 C         138.1338  143.4044  164.7489 C.3     1  UNL1        0.0976
@<TRIPOS>BOND
     1    26    27    1
     2    27     1    1
     3     1    14    1
     4    14    15   ar
     5    15    16   ar
     6    16    17   ar
     7    17    18   ar
     8    18    20    1
     9    20    21   ar
    10    21    22   ar
    11    22    23   ar
    12    23    24   ar
    13    24    25   ar
    14    18    19   ar
    15     1     2    1
    16     2     3    2
    17     3     4    1
    18     3     5    1
    19     5     6   ar
    20     6     7   ar
    21     7     8   ar
    22     8     9   ar
    23     9    10   ar
    24    10    11    1
    25    11     1    1
    26    19    14   ar
    27    10     5   ar
    28    25    20   ar
    29     4    12    1
    30     4    13    1
@<TRIPOS>MOLECULE
*****
 27 30 0 0 0
SMALL
GASTEIGER

@<TRIPOS>ATOM
      1 C         142.1247  141.5608  167.4969 C.3     1  UNL1        0.3267
      2 N         141.5997  141.5300  168.9016 N.2     1  UNL1       -0.0293
      3 C         140.3320  140.7908  169.2124 C.2     1  UNL1        0.3199
      4 N         139.8069  140.7600  170.6172 N.pl3   1  UNL1       -0.2463
      5 C         139.5893  140.0825  168.1184 C.ar    1  UNL1        0.1156
      6 C         138.3216  139.3434  168.4292 C.ar    1  UNL1        0.0104
      7 C         137.5790  138.6351  167.3352 C.ar    1  UNL1        0.0004
      8 C         138.1040  138.6660  165.9305 C.ar    1  UNL1        0.0031
      9 C         139.3717  139.4051  165.6197 C.ar    1  UNL1        0.0373
     10 C         140.1143  140.1134  166.7136 C.ar    1  UNL1        0.1501
     11 O         141.3821  140.8526  166.4029 O.3     1  UNL1       -0.4394
     12 H         140.2944  141.2248  171.3352 H       1  UNL1        0.2884
     13 H         138.9749  140.2749  170.8212 H       1  UNL1        0.2884
     14 C         143.0151  141.8756  166.3315 C.ar    1  UNL1        0.0612
     15 C         143.9069  143.0810  166.3730 C.ar    1  UNL1        0.0034
     16 C         144.7972  143.3958  165.2077 C.ar    1  UNL1       -0.0001
     17 C         144.7958  142.5052  164.0007 C.ar    1  UNL1        0.0001
     18 C         143.9040  141.2998  163.9590 C.ar    1  UNL1        0.0029
     19 C         143.0136  140.9850  165.1244 C.ar    1  UNL1        0.0035
     20 C         143.9025  140.4092  162.7521 C.ar    1  UNL1        0.0384
     21 C         143.9129  138.9186  162.9200 C.ar    1  UNL1        0.1022
     22 N         143.9114  138.0280  161.7130 N.ar    1  UNL1       -0.2224
     23 C         143.8995  138.6278  160.3382 C.ar    1  UNL1        0.1989
     24 N         143.8892  140.1184  160.1703 N.ar    1  UNL1       -0.2224
     25 C         143.8907  141.0090  161.3773 C.ar    1  UNL1        0.1022
     26 C         143.5172  142.1062  169.6214 C.3     1  UNL1        0.0090
     27 C         143.1766  142.3784  168.1861 C.3     1  UNL1        0.0976
@<TRIPOS>BOND
     1    26    27    1
     2    27     1    1
     3     1    14    1
     4    14    15   ar
     5    15    16   ar
     6    16    17   ar
     7    17    18   ar
     8    18    20    1
     9    20    21   ar
    10    21    22   ar
    11    22    23   ar
    12    23    24   ar
    13    24    25   ar
    14    18    19   ar
    15     1     2    1
    16     2     3    2
    17     3     4    1
    18     3     5    1
    19     5     6   ar
    20     6     7   ar
    21     7     8   ar
    22     8     9   ar
    23     9    10   ar
    24    10    11    1
    25    11     1    1
    26    19    14   ar
    27    10     5   ar
    28    25    20   ar
    29     4    12    1
    30     4    13    1
@<TRIPOS>MOLECULE
*****
 27 30 0 0 0
SMALL
GASTEIGER

@<TRIPOS>ATOM
      1 C         140.4849  142.5666  163.8757 C.3     1  UNL1        0.3267
      2 N         139.6446  143.1194  162.7628 N.2     1  UNL1       -0.0293
      3 C         138.7800  142.2026  161.9493 C.2     1  UNL1        0.3199
      4 N         137.9398  142.7554  160.8364 N.pl3   1  UNL1       -0.2463
      5 C         138.7556  140.7329  162.2486 C.ar    1  UNL1        0.1156
      6 C         137.8909  139.8161  161.4350 C.ar    1  UNL1        0.0104
      7 C         137.8665  138.3465  161.7344 C.ar    1  UNL1        0.0004
      8 C         138.7067  137.7937  162.8472 C.ar    1  UNL1        0.0031
      9 C         139.5714  138.7105  163.6607 C.ar    1  UNL1        0.0373
     10 C         139.5958  140.1801  163.3614 C.ar    1  UNL1        0.1501
     11 O         140.4604  141.0970  164.1750 O.3     1  UNL1       -0.4394
     12 H         137.9558  143.7200  160.6400 H       1  UNL1        0.2884
     13 H         137.3723  142.1537  160.3025 H       1  UNL1        0.2884
     14 C         141.4499  142.5183  165.0229 C.ar    1  UNL1        0.0612
     15 C         142.8767  142.9347  164.8209 C.ar    1  UNL1        0.0034
     16 C         143.8418  142.8865  165.9681 C.ar    1  UNL1       -0.0001
     17 C         143.3801  142.4218  167.3175 C.ar    1  UNL1        0.0001
     18 C         141.9534  142.0053  167.5197 C.ar    1  UNL1        0.0029
     19 C         140.9882  142.0536  166.3724 C.ar    1  UNL1        0.0035
     20 C         141.4916  141.5406  168.8690 C.ar    1  UNL1        0.0384
     21 C         141.7178  142.4014  170.0765 C.ar    1  UNL1        0.1022
     22 N         141.2561  141.9367  171.4259 N.ar    1  UNL1       -0.2224
     23 C         140.5682  140.6113  171.5679 C.ar    1  UNL1        0.1989
     24 N         140.3420  139.7505  170.3604 N.ar    1  UNL1       -0.2224
     25 C         140.8038  140.2153  169.0110 C.ar    1  UNL1        0.1022
     26 C         139.7726  145.0434  164.2044 C.3     1  UNL1        0.0090
     27 C         140.8444  144.0194  163.9748 C.3     1  UNL1        0.0976
@<TRIPOS>BOND
     1    26    27    1
     2    27     1    1
     3     1    14    1
     4    14    15   ar
     5    15    16   ar
     6    16    17   ar
     7    17    18   ar
     8    18    20    1
     9    20    21   ar
    10    21    22   ar
    11    22    23   ar
    12    23    24   ar
    13    24    25   ar
    14    18    19   ar
    15     1     2    1
    16     2     3    2
    17     3     4    1
    18     3     5    1
    19     5     6   ar
    20     6     7   ar
    21     7     8   ar
    22     8     9   ar
    23     9    10   ar
    24    10    11    1
    25    11     1    1
    26    19    14   ar
    27    10     5   ar
    28    25    20   ar
    29     4    12    1
    30     4    13    1
@<TRIPOS>MOLECULE
*****
 27 30 0 0 0
SMALL
GASTEIGER

@<TRIPOS>ATOM
      1 C         143.1090  141.5809  163.8985 C.3     1  UNL1        0.3267
      2 N         143.6007  142.1878  162.6179 N.2     1  UNL1       -0.0293
      3 C         142.8026  143.2636  161.9428 C.2     1  UNL1        0.3199
      4 N         143.2943  143.8705  160.6622 N.pl3   1  UNL1       -0.2463
      5 C         141.5128  143.7325  162.5483 C.ar    1  UNL1        0.1156
      6 C         140.7148  144.8083  161.8732 C.ar    1  UNL1        0.0104
      7 C         139.4251  145.2772  162.4788 C.ar    1  UNL1        0.0004
      8 C         138.9334  144.6703  163.7593 C.ar    1  UNL1        0.0031
      9 C         139.7314  143.5945  164.4344 C.ar    1  UNL1        0.0373
     10 C         141.0211  143.1256  163.8289 C.ar    1  UNL1        0.1501
     11 O         141.8192  142.0498  164.5040 O.3     1  UNL1       -0.4394
     12 H         144.1409  143.5628  160.2648 H       1  UNL1        0.2884
     13 H         142.7705  144.5766  160.2192 H       1  UNL1        0.2884
     14 C         143.0592  140.7056  165.1155 C.ar    1  UNL1        0.0612
     15 C         143.5944  139.3057  165.0550 C.ar    1  UNL1        0.0034
     16 C         143.5446  138.4304  166.2721 C.ar    1  UNL1       -0.0001
     17 C         142.9596  138.9550  167.5498 C.ar    1  UNL1        0.0001
     18 C         142.4244  140.3549  167.6104 C.ar    1  UNL1        0.0029
     19 C         142.4742  141.2303  166.3933 C.ar    1  UNL1        0.0035
     20 C         141.8394  140.8796  168.8881 C.ar    1  UNL1        0.0384
     21 C         142.4928  140.5584  170.1996 C.ar    1  UNL1        0.1022
     22 N         141.9078  141.0831  171.4772 N.ar    1  UNL1       -0.2224
     23 C         140.6695  141.9289  171.4435 C.ar    1  UNL1        0.1989
     24 N         140.0161  142.2501  170.1320 N.ar    1  UNL1       -0.2224
     25 C         140.6011  141.7254  168.8544 C.ar    1  UNL1        0.1022
     26 C         145.6750  141.5345  163.4939 C.3     1  UNL1        0.0090
     27 C         144.3815  140.8080  163.7156 C.3     1  UNL1        0.0976
@<TRIPOS>BOND
     1    26    27    1
     2    27     1    1
     3     1    14    1
     4    14    15   ar
     5    15    16   ar
     6    16    17   ar
     7    17    18   ar
     8    18    20    1
     9    20    21   ar
    10    21    22   ar
    11    22    23   ar
    12    23    24   ar
    13    24    25   ar
    14    18    19   ar
    15     1     2    1
    16     2     3    2
    17     3     4    1
    18     3     5    1
    19     5     6   ar
    20     6     7   ar
    21     7     8   ar
    22     8     9   ar
    23     9    10   ar
    24    10    11    1
    25    11     1    1
    26    19    14   ar
    27    10     5   ar
    28    25    20   ar
    29     4    12    1
    30     4    13    1
@<TRIPOS>MOLECULE
*****
 27 30 0 0 0
SMALL
GASTEIGER

@<TRIPOS>ATOM
      1 C         142.6387  139.8647  166.7062 C.3     1  UNL1        0.3267
      2 N         142.9895  138.9805  167.8659 N.2     1  UNL1       -0.0293
      3 C         142.5623  139.3583  169.2533 C.2     1  UNL1        0.3199
      4 N         142.9131  138.4741  170.4130 N.pl3   1  UNL1       -0.2463
      5 C         141.7842  140.6205  169.4809 C.ar    1  UNL1        0.1156
      6 C         141.3570  140.9983  170.8682 C.ar    1  UNL1        0.0104
      7 C         140.5790  142.2603  171.0958 C.ar    1  UNL1        0.0004
      8 C         140.2282  143.1446  169.9360 C.ar    1  UNL1        0.0031
      9 C         140.6554  142.7668  168.5487 C.ar    1  UNL1        0.0373
     10 C         141.4334  141.5047  168.3211 C.ar    1  UNL1        0.1501
     11 O         141.8607  141.1268  166.9337 O.3     1  UNL1       -0.4394
     12 H         143.4237  137.6457  170.2636 H       1  UNL1        0.2884
     13 H         142.6327  138.7221  171.3236 H       1  UNL1        0.2884
     14 C         142.5470  140.3718  165.2975 C.ar    1  UNL1        0.0612
     15 C         143.6947  141.1276  164.6962 C.ar    1  UNL1        0.0034
     16 C         143.6031  141.6347  163.2876 C.ar    1  UNL1       -0.0001
     17 C         142.3637  141.3860  162.4801 C.ar    1  UNL1        0.0001
     18 C         141.2159  140.6303  163.0812 C.ar    1  UNL1        0.0029
     19 C         141.3075  140.1232  164.4900 C.ar    1  UNL1        0.0035
     20 C         139.9765  140.3816  162.2738 C.ar    1  UNL1        0.0384
     21 C         139.9698  139.3145  161.2196 C.ar    1  UNL1        0.1022
     22 N         138.7304  139.0658  160.4122 N.ar    1  UNL1       -0.2224
     23 C         137.4977  139.8840  160.6589 C.ar    1  UNL1        0.1989
     24 N         137.5044  140.9511  161.7132 N.ar    1  UNL1       -0.2224
     25 C         138.7438  141.1998  162.5206 C.ar    1  UNL1        0.1022
     26 C         144.1078  137.7230  166.7721 C.3     1  UNL1        0.0090
     27 C         143.3849  138.7788  165.9894 C.3     1  UNL1        0.0976
@<TRIPOS>BOND
     1    26    27    1
     2    27     1    1
     3     1    14    1
     4    14    15   ar
     5    15    16   ar
     6    16    17   ar
     7    17    18   ar
     8    18    20    1
     9    20    21   ar
    10    21    22   ar
    11    22    23   ar
    12    23    24   ar
    13    24    25   ar
    14    18    19   ar
    15     1     2    1
    16     2     3    2
    17     3     4    1
    18     3     5    1
    19     5     6   ar
    20     6     7   ar
    21     7     8   ar
    22     8     9   ar
    23     9    10   ar
    24    10    11    1
    25    11     1    1
    26    19    14   ar
    27    10     5   ar
    28    25    20   ar
    29     4    12    1
    30     4    13    1
