@<TRIPOS>MOLECULE
*****
 27 29 0 0 0
SMALL
GASTEIGER

@<TRIPOS>ATOM
      1 C         140.7930  141.7192  168.1037 C.ar    1  UNL1        0.0044
      2 C         140.1760  142.5970  169.1519 C.ar    1  UNL1        0.0001
      3 C         141.0481  143.3029  170.1474 C.ar    1  UNL1        0.0000
      4 C         142.5374  143.1309  170.0947 C.ar    1  UNL1        0.0000
      5 C         143.1544  142.2531  169.0465 C.ar    1  UNL1        0.0015
      6 C         142.2822  141.5472  168.0510 C.ar    1  UNL1        0.0177
      7 C         139.7920  141.5471  165.7123 C.ar    1  UNL1        0.1385
      8 C         138.9198  140.8413  164.7169 C.ar    1  UNL1        0.0378
      9 C         138.1764  139.6015  165.1173 C.ar    1  UNL1        0.0145
     10 C         138.3052  139.0676  166.5131 C.ar    1  UNL1        0.0579
     11 CL        137.5618  137.8278  166.9134 Cl      1  UNL1       -0.0822
     12 C         139.1774  139.7735  167.5085 C.ar    1  UNL1        0.0144
     13 C         139.9208  141.0133  167.1081 C.ar    1  UNL1        0.0349
     14 O         140.5354  142.7869  165.3120 O.3     1  UNL1       -0.4755
     15 C         139.9921  143.6701  164.2281 C.3     1  UNL1        0.2053
     16 C         138.3738  145.0617  165.7096 C.3     1  UNL1        0.0038
     17 C         138.6761  144.3649  164.4160 C.3     1  UNL1        0.0438
     18 C         137.6624  144.3630  163.3105 C.3     1  UNL1        0.0038
     19 C         142.8992  140.6694  167.0028 C.ar    1  UNL1        0.0813
     20 C         142.9621  139.1851  167.2096 C.ar    1  UNL1        0.0191
     21 C         143.5791  138.3072  166.1615 C.ar    1  UNL1        0.0031
     22 C         144.1332  138.9137  164.9064 C.ar    1  UNL1        0.0203
     23 CA        144.0703  140.3981  164.6995 C.ar    1  UNL1        0.0952
     24 N         143.4533  141.2759  165.7477 N.ar    1  UNL1       -0.2442
     25 C         144.6243  141.0046  163.4445 C.2     1  UNL1        0.0905
     26 O         143.7312  141.2226  162.2593 O.co2   1  UNL1       -0.5430
     27 OXT       146.0715  141.3930  163.3747 O.co2   1  UNL1       -0.5430
@<TRIPOS>UNITY_ATOM_ATTR
27 1
charge -1
@<TRIPOS>BOND
     1    16    17    1
     2    17    18    1
     3    17    15    1
     4    15    14    1
     5    14     7    1
     6     7     8   ar
     7     8     9   ar
     8     9    10   ar
     9    10    11    1
    10    10    12   ar
    11    12    13   ar
    12    13     1    1
    13     1     2   ar
    14     2     3   ar
    15     3     4   ar
    16     4     5   ar
    17     5     6   ar
    18     6    19    1
    19    19    20   ar
    20    20    21   ar
    21    21    22   ar
    22    22    23   ar
    23    23    25    1
    24    25    26   ar
    25    25    27   ar
    26    23    24   ar
    27    13     7   ar
    28     6     1   ar
    29    24    19   ar
@<TRIPOS>MOLECULE
*****
 27 29 0 0 0
SMALL
GASTEIGER

@<TRIPOS>ATOM
      1 C         142.2858  142.6489  165.7640 C.ar    1  UNL1        0.0044
      2 C         143.7371  142.6420  166.1431 C.ar    1  UNL1        0.0001
      3 C         144.6916  143.5859  165.4738 C.ar    1  UNL1        0.0000
      4 C         144.1948  144.5367  164.4253 C.ar    1  UNL1        0.0000
      5 C         142.7435  144.5436  164.0463 C.ar    1  UNL1        0.0015
      6 C         141.7890  143.5996  164.7156 C.ar    1  UNL1        0.0177
      7 C         140.8906  140.4575  165.7266 C.ar    1  UNL1        0.1385
      8 C         139.9361  139.5137  166.3960 C.ar    1  UNL1        0.0378
      9 C         139.4225  139.8172  167.7722 C.ar    1  UNL1        0.0145
     10 C         139.8633  141.0646  168.4790 C.ar    1  UNL1        0.0579
     11 CL        139.3496  141.3681  169.8553 Cl      1  UNL1       -0.0822
     12 C         140.8177  142.0085  167.8097 C.ar    1  UNL1        0.0144
     13 C         141.3313  141.7049  166.4334 C.ar    1  UNL1        0.0349
     14 O         141.4042  140.1540  164.3503 O.3     1  UNL1       -0.4755
     15 C         142.3661  139.0222  164.1415 C.3     1  UNL1        0.2053
     16 C         144.8868  139.6135  164.3579 C.3     1  UNL1        0.0038
     17 C         143.6494  138.9757  164.9168 C.3     1  UNL1        0.0438
     18 C         143.6953  138.2916  166.2509 C.3     1  UNL1        0.0038
     19 C         140.3377  143.6065  164.3366 C.ar    1  UNL1        0.0813
     20 C         139.3358  144.2924  165.2172 C.ar    1  UNL1        0.0191
     21 C         137.8845  144.2993  164.8381 C.ar    1  UNL1        0.0031
     22 C         137.4351  143.6202  163.5784 C.ar    1  UNL1        0.0203
     23 CA        138.4371  142.9343  162.6977 C.ar    1  UNL1        0.0952
     24 N         139.8884  142.9274  163.0768 N.ar    1  UNL1       -0.2442
     25 C         137.9878  142.2552  161.4380 C.2     1  UNL1        0.0905
     26 O         138.1913  142.9250  160.1113 O.co2   1  UNL1       -0.5430
     27 OXT       137.3349  140.9064  161.5049 O.co2   1  UNL1       -0.5430
@<TRIPOS>UNITY_ATOM_ATTR
27 1
charge -1
@<TRIPOS>BOND
     1    16    17    1
     2    17    18    1
     3    17    15    1
     4    15    14    1
     5    14     7    1
     6     7     8   ar
     7     8     9   ar
     8     9    10   ar
     9    10    11    1
    10    10    12   ar
    11    12    13   ar
    12    13     1    1
    13     1     2   ar
    14     2     3   ar
    15     3     4   ar
    16     4     5   ar
    17     5     6   ar
    18     6    19    1
    19    19    20   ar
    20    20    21   ar
    21    21    22   ar
    22    22    23   ar
    23    23    25    1
    24    25    26   ar
    25    25    27   ar
    26    23    24   ar
    27    13     7   ar
    28     6     1   ar
    29    24    19   ar
@<TRIPOS>MOLECULE
*****
 27 29 0 0 0
SMALL
GASTEIGER

@<TRIPOS>ATOM
      1 C         138.9332  141.8256  164.9569 C.ar    1  UNL1        0.0044
      2 C         138.0435  142.3933  163.8910 C.ar    1  UNL1        0.0001
      3 C         137.9134  143.8796  163.7358 C.ar    1  UNL1        0.0000
      4 C         138.6730  144.7982  164.6464 C.ar    1  UNL1        0.0000
      5 C         139.5628  144.2304  165.7123 C.ar    1  UNL1        0.0015
      6 C         139.6929  142.7441  165.8675 C.ar    1  UNL1        0.0177
      7 C         140.1534  139.6026  164.3918 C.ar    1  UNL1        0.1385
      8 C         140.2834  138.1163  164.5470 C.ar    1  UNL1        0.0378
      9 C         139.3234  137.3668  165.4225 C.ar    1  UNL1        0.0145
     10 C         138.2333  138.1035  166.1428 C.ar    1  UNL1        0.0579
     11 CL        137.2732  137.3540  167.0183 Cl      1  UNL1       -0.0822
     12 C         138.1032  139.5898  165.9876 C.ar    1  UNL1        0.0144
     13 C         139.0633  140.3393  165.1121 C.ar    1  UNL1        0.0349
     14 O         141.1135  140.3521  163.5163 O.3     1  UNL1       -0.4755
     15 C         142.4467  139.7526  163.1802 C.3     1  UNL1        0.2053
     16 C         144.5466  141.0287  164.0241 C.3     1  UNL1        0.0038
     17 C         143.5901  139.8793  164.1428 C.3     1  UNL1        0.0438
     18 C         143.7770  138.8566  165.2241 C.3     1  UNL1        0.0038
     19 C         140.5826  142.1764  166.9333 C.ar    1  UNL1        0.0813
     20 C         142.0543  142.0305  166.6826 C.ar    1  UNL1        0.0191
     21 C         142.9440  141.4628  167.7485 C.ar    1  UNL1        0.0031
     22 C         142.3621  141.0409  169.0650 C.ar    1  UNL1        0.0203
     23 CA        140.8904  141.1868  169.3158 C.ar    1  UNL1        0.0952
     24 N         140.0006  141.7545  168.2500 N.ar    1  UNL1       -0.2442
     25 C         140.3084  140.7649  170.6324 C.2     1  UNL1        0.0905
     26 O         140.7926  141.3973  171.9034 O.co2   1  UNL1       -0.5430
     27 OXT       139.2423  139.7107  170.6778 O.co2   1  UNL1       -0.5430
@<TRIPOS>UNITY_ATOM_ATTR
27 1
charge -1
@<TRIPOS>BOND
     1    16    17    1
     2    17    18    1
     3    17    15    1
     4    15    14    1
     5    14     7    1
     6     7     8   ar
     7     8     9   ar
     8     9    10   ar
     9    10    11    1
    10    10    12   ar
    11    12    13   ar
    12    13     1    1
    13     1     2   ar
    14     2     3   ar
    15     3     4   ar
    16     4     5   ar
    17     5     6   ar
    18     6    19    1
    19    19    20   ar
    20    20    21   ar
    21    21    22   ar
    22    22    23   ar
    23    23    25    1
    24    25    26   ar
    25    25    27   ar
    26    23    24   ar
    27    13     7   ar
    28     6     1   ar
    29    24    19   ar
@<TRIPOS>MOLECULE
*****
 27 29 0 0 0
SMALL
GASTEIGER

@<TRIPOS>ATOM
      1 C         138.8252  141.7695  164.9972 C.ar    1  UNL1        0.0044
      2 C         137.9921  142.5221  164.0023 C.ar    1  UNL1        0.0001
      3 C         138.0069  144.0219  163.9938 C.ar    1  UNL1        0.0000
      4 C         138.8547  144.7693  164.9801 C.ar    1  UNL1        0.0000
      5 C         139.6877  144.0167  165.9749 C.ar    1  UNL1        0.0015
      6 C         139.6729  142.5168  165.9834 C.ar    1  UNL1        0.0177
      7 C         139.5233  139.5064  163.9290 C.ar    1  UNL1        0.1385
      8 C         139.5085  138.0065  163.9376 C.ar    1  UNL1        0.0378
      9 C         138.7808  137.2698  165.0228 C.ar    1  UNL1        0.0145
     10 C         138.0679  138.0330  166.0995 C.ar    1  UNL1        0.0579
     11 CL        137.3402  137.2963  167.1847 Cl      1  UNL1       -0.0822
     12 C         138.0827  139.5328  166.0909 C.ar    1  UNL1        0.0144
     13 C         138.8104  140.2695  165.0057 C.ar    1  UNL1        0.0349
     14 O         140.2510  140.2431  162.8438 O.3     1  UNL1       -0.4755
     15 C         141.5734  140.8894  163.1326 C.3     1  UNL1        0.2053
     16 C         140.9791  143.0527  161.8222 C.3     1  UNL1        0.0038
     17 C         141.7550  142.3606  162.9035 C.3     1  UNL1        0.0438
     18 C         142.7126  143.1398  163.7555 C.3     1  UNL1        0.0038
     19 C         140.5060  141.7642  166.9783 C.ar    1  UNL1        0.0813
     20 C         141.8457  141.2219  166.5770 C.ar    1  UNL1        0.0191
     21 C         142.6787  140.4693  167.5719 C.ar    1  UNL1        0.0031
     22 C         142.1720  140.2590  168.9679 C.ar    1  UNL1        0.0203
     23 CA        140.8322  140.8014  169.3692 C.ar    1  UNL1        0.0952
     24 N         139.9992  141.5540  168.3744 N.ar    1  UNL1       -0.2442
     25 C         140.3255  140.5911  170.7653 C.2     1  UNL1        0.0905
     26 O         139.3803  139.4639  171.0582 O.co2   1  UNL1       -0.5430
     27 OXT       140.7641  141.5080  171.8684 O.co2   1  UNL1       -0.5430
@<TRIPOS>UNITY_ATOM_ATTR
27 1
charge -1
@<TRIPOS>BOND
     1    16    17    1
     2    17    18    1
     3    17    15    1
     4    15    14    1
     5    14     7    1
     6     7     8   ar
     7     8     9   ar
     8     9    10   ar
     9    10    11    1
    10    10    12   ar
    11    12    13   ar
    12    13     1    1
    13     1     2   ar
    14     2     3   ar
    15     3     4   ar
    16     4     5   ar
    17     5     6   ar
    18     6    19    1
    19    19    20   ar
    20    20    21   ar
    21    21    22   ar
    22    22    23   ar
    23    23    25    1
    24    25    26   ar
    25    25    27   ar
    26    23    24   ar
    27    13     7   ar
    28     6     1   ar
    29    24    19   ar
@<TRIPOS>MOLECULE
*****
 27 29 0 0 0
SMALL
GASTEIGER

@<TRIPOS>ATOM
      1 C         141.6013  141.2598  164.5343 C.ar    1  UNL1        0.0044
      2 C         142.4831  141.2193  163.3216 C.ar    1  UNL1        0.0001
      3 C         143.8046  140.5119  163.3784 C.ar    1  UNL1        0.0000
      4 C         144.2443  139.8450  164.6480 C.ar    1  UNL1        0.0000
      5 C         143.3625  139.8855  165.8608 C.ar    1  UNL1        0.0015
      6 C         142.0410  140.5929  165.8039 C.ar    1  UNL1        0.0177
      7 C         139.1579  141.3961  163.6618 C.ar    1  UNL1        0.1385
      8 C         137.8364  142.1035  163.6050 C.ar    1  UNL1        0.0378
      9 C         137.6368  143.3820  164.3637 C.ar    1  UNL1        0.0145
     10 C         138.7587  143.9531  165.1792 C.ar    1  UNL1        0.0579
     11 CL        138.5591  145.2316  165.9379 Cl      1  UNL1       -0.0822
     12 C         140.0802  143.2457  165.2361 C.ar    1  UNL1        0.0144
     13 C         140.2797  141.9672  164.4774 C.ar    1  UNL1        0.0349
     14 O         139.3574  140.1176  162.9031 O.3     1  UNL1       -0.4755
     15 C         139.4329  138.8128  163.6390 C.3     1  UNL1        0.2053
     16 C         141.3213  137.8331  162.1476 C.3     1  UNL1        0.0038
     17 C         140.6340  137.9289  163.4775 C.3     1  UNL1        0.0438
     18 C         141.1479  137.1410  164.6458 C.3     1  UNL1        0.0038
     19 C         141.1591  140.6334  167.0167 C.ar    1  UNL1        0.0813
     20 C         139.9172  139.7940  167.0693 C.ar    1  UNL1        0.0191
     21 C         139.0354  139.8344  168.2820 C.ar    1  UNL1        0.0031
     22 C         139.3955  140.7144  169.4422 C.ar    1  UNL1        0.0203
     23 CA        140.6375  141.5539  169.3896 C.ar    1  UNL1        0.0952
     24 N         141.5193  141.5134  168.1768 N.ar    1  UNL1       -0.2442
     25 C         140.9977  142.4338  170.5497 C.2     1  UNL1        0.0905
     26 O         141.8618  143.6410  170.3355 O.co2   1  UNL1       -0.5430
     27 OXT       140.4937  142.1066  171.9241 O.co2   1  UNL1       -0.5430
@<TRIPOS>UNITY_ATOM_ATTR
27 1
charge -1
@<TRIPOS>BOND
     1    16    17    1
     2    17    18    1
     3    17    15    1
     4    15    14    1
     5    14     7    1
     6     7     8   ar
     7     8     9   ar
     8     9    10   ar
     9    10    11    1
    10    10    12   ar
    11    12    13   ar
    12    13     1    1
    13     1     2   ar
    14     2     3   ar
    15     3     4   ar
    16     4     5   ar
    17     5     6   ar
    18     6    19    1
    19    19    20   ar
    20    20    21   ar
    21    21    22   ar
    22    22    23   ar
    23    23    25    1
    24    25    26   ar
    25    25    27   ar
    26    23    24   ar
    27    13     7   ar
    28     6     1   ar
    29    24    19   ar
@<TRIPOS>MOLECULE
*****
 27 29 0 0 0
SMALL
GASTEIGER

@<TRIPOS>ATOM
      1 C         142.2289  142.5422  165.6683 C.ar    1  UNL1        0.0044
      2 C         143.6670  142.5128  166.0936 C.ar    1  UNL1        0.0001
      3 C         144.6306  143.5259  165.5504 C.ar    1  UNL1        0.0000
      4 C         144.1561  144.5683  164.5817 C.ar    1  UNL1        0.0000
      5 C         142.7179  144.5976  164.1564 C.ar    1  UNL1        0.0015
      6 C         141.7543  143.5845  164.6997 C.ar    1  UNL1        0.0177
      7 C         140.6733  141.7141  167.5774 C.ar    1  UNL1        0.1385
      8 C         139.7097  140.7010  168.1207 C.ar    1  UNL1        0.0378
      9 C         139.3381  139.5029  167.2982 C.ar    1  UNL1        0.0145
     10 C         139.9301  139.3179  165.9324 C.ar    1  UNL1        0.0579
     11 CL        139.5585  138.1198  165.1099 Cl      1  UNL1       -0.0822
     12 C         140.8936  140.3310  165.3892 C.ar    1  UNL1        0.0144
     13 C         141.2652  141.5291  166.2116 C.ar    1  UNL1        0.0349
     14 O         141.0449  142.9121  168.3999 O.3     1  UNL1       -0.4755
     15 C         141.6458  142.7296  169.7621 C.3     1  UNL1        0.2053
     16 C         144.2415  142.6261  169.7991 C.3     1  UNL1        0.0038
     17 C         142.9122  141.9423  169.9238 C.3     1  UNL1        0.0438
     18 C         142.8494  140.4713  170.2104 C.3     1  UNL1        0.0038
     19 C         140.3162  143.6139  164.2744 C.ar    1  UNL1        0.0813
     20 C         139.2980  144.3188  165.1207 C.ar    1  UNL1        0.0191
     21 C         137.8599  144.3481  164.6954 C.ar    1  UNL1        0.0031
     22 C         137.4399  143.6725  163.4237 C.ar    1  UNL1        0.0203
     23 CA        138.4581  142.9675  162.5773 C.ar    1  UNL1        0.0952
     24 N         139.8963  142.9382  163.0027 N.ar    1  UNL1       -0.2442
     25 C         138.0382  142.2918  161.3057 C.2     1  UNL1        0.0905
     26 O         138.2879  142.9575  159.9849 O.co2   1  UNL1       -0.5430
     27 OXT       137.3685  140.9505  161.3548 O.co2   1  UNL1       -0.5430
@<TRIPOS>UNITY_ATOM_ATTR
27 1
charge -1
@<TRIPOS>BOND
     1    16    17    1
     2    17    18    1
     3    17    15    1
     4    15    14    1
     5    14     7    1
     6     7     8   ar
     7     8     9   ar
     8     9    10   ar
     9    10    11    1
    10    10    12   ar
    11    12    13   ar
    12    13     1    1
    13     1     2   ar
    14     2     3   ar
    15     3     4   ar
    16     4     5   ar
    17     5     6   ar
    18     6    19    1
    19    19    20   ar
    20    20    21   ar
    21    21    22   ar
    22    22    23   ar
    23    23    25    1
    24    25    26   ar
    25    25    27   ar
    26    23    24   ar
    27    13     7   ar
    28     6     1   ar
    29    24    19   ar
@<TRIPOS>MOLECULE
*****
 27 29 0 0 0
SMALL
GASTEIGER

@<TRIPOS>ATOM
      1 C         139.5216  140.2554  163.8850 C.ar    1  UNL1        0.0044
      2 C         138.9041  139.7899  162.5997 C.ar    1  UNL1        0.0001
      3 C         138.5434  138.3450  162.4210 C.ar    1  UNL1        0.0000
      4 C         138.8002  137.3654  163.5276 C.ar    1  UNL1        0.0000
      5 C         139.4177  137.8308  164.8129 C.ar    1  UNL1        0.0015
      6 C         139.7784  139.2759  164.9916 C.ar    1  UNL1        0.0177
      7 C         141.1840  142.2201  163.5293 C.ar    1  UNL1        0.1385
      8 C         141.5447  143.6650  163.7080 C.ar    1  UNL1        0.0378
      9 C         140.6037  144.5903  164.4211 C.ar    1  UNL1        0.0145
     10 C         139.3021  144.0706  164.9554 C.ar    1  UNL1        0.0579
     11 CL        138.3611  144.9959  165.6685 Cl      1  UNL1       -0.0822
     12 C         138.9414  142.6257  164.7767 C.ar    1  UNL1        0.0144
     13 C         139.8824  141.7004  164.0637 C.ar    1  UNL1        0.0349
     14 O         142.1250  141.2948  162.8163 O.3     1  UNL1       -0.4755
     15 C         143.5847  141.6292  162.7310 C.3     1  UNL1        0.2053
     16 C         144.7913  142.5547  164.8376 C.3     1  UNL1        0.0038
     17 C         144.4746  141.4120  163.9188 C.3     1  UNL1        0.0438
     18 C         145.0478  140.0523  164.1879 C.3     1  UNL1        0.0038
     19 C         140.3959  139.7413  166.2769 C.ar    1  UNL1        0.0813
     20 C         141.8843  139.8950  166.3815 C.ar    1  UNL1        0.0191
     21 C         142.5018  140.3605  167.6668 C.ar    1  UNL1        0.0031
     22 C         141.6309  140.6722  168.8476 C.ar    1  UNL1        0.0203
     23 CA        140.1424  140.5185  168.7431 C.ar    1  UNL1        0.0952
     24 N         139.5249  140.0530  167.4578 N.ar    1  UNL1       -0.2442
     25 C         139.2715  140.8302  169.9239 C.2     1  UNL1        0.0905
     26 O         139.3779  142.1633  170.6031 O.co2   1  UNL1       -0.5430
     27 OXT       138.2942  139.8088  170.4254 O.co2   1  UNL1       -0.5430
@<TRIPOS>UNITY_ATOM_ATTR
27 1
charge -1
@<TRIPOS>BOND
     1    16    17    1
     2    17    18    1
     3    17    15    1
     4    15    14    1
     5    14     7    1
     6     7     8   ar
     7     8     9   ar
     8     9    10   ar
     9    10    11    1
    10    10    12   ar
    11    12    13   ar
    12    13     1    1
    13     1     2   ar
    14     2     3   ar
    15     3     4   ar
    16     4     5   ar
    17     5     6   ar
    18     6    19    1
    19    19    20   ar
    20    20    21   ar
    21    21    22   ar
    22    22    23   ar
    23    23    25    1
    24    25    26   ar
    25    25    27   ar
    26    23    24   ar
    27    13     7   ar
    28     6     1   ar
    29    24    19   ar
@<TRIPOS>MOLECULE
*****
 27 29 0 0 0
SMALL
GASTEIGER

@<TRIPOS>ATOM
      1 C         141.7828  141.7848  167.5354 C.ar    1  UNL1        0.0044
      2 C         142.8320  142.5281  168.3079 C.ar    1  UNL1        0.0001
      3 C         143.4769  141.8899  169.5024 C.ar    1  UNL1        0.0000
      4 C         143.0726  140.5084  169.9244 C.ar    1  UNL1        0.0000
      5 C         142.0234  139.7651  169.1519 C.ar    1  UNL1        0.0015
      6 C         141.3785  140.4034  167.9574 C.ar    1  UNL1        0.0177
      7 C         141.6659  142.1439  164.9649 C.ar    1  UNL1        0.1385
      8 C         141.0210  142.7822  163.7705 C.ar    1  UNL1        0.0378
      9 C         139.8482  143.6996  163.9520 C.ar    1  UNL1        0.0145
     10 C         139.3203  143.9787  165.3279 C.ar    1  UNL1        0.0579
     11 CL        138.1475  144.8961  165.5095 Cl      1  UNL1       -0.0822
     12 C         139.9652  143.3405  166.5224 C.ar    1  UNL1        0.0144
     13 C         141.1380  142.4231  166.3409 C.ar    1  UNL1        0.0349
     14 O         142.8387  141.2266  164.7834 O.3     1  UNL1       -0.4755
     15 C         144.1217  141.7535  164.2124 C.3     1  UNL1        0.2053
     16 C         144.7825  143.8769  165.5557 C.3     1  UNL1        0.0038
     17 C         144.4142  143.2240  164.2564 C.3     1  UNL1        0.0438
     18 C         144.3384  144.0417  163.0012 C.3     1  UNL1        0.0038
     19 C         140.3293  139.6601  167.1848 C.ar    1  UNL1        0.0813
     20 C         138.9259  139.5832  167.7086 C.ar    1  UNL1        0.0191
     21 C         137.8767  138.8399  166.9361 C.ar    1  UNL1        0.0031
     22 C         138.2310  138.1736  165.6398 C.ar    1  UNL1        0.0203
     23 CA        139.6345  138.2505  165.1159 C.ar    1  UNL1        0.0952
     24 N         140.6837  138.9938  165.8885 N.ar    1  UNL1       -0.2442
     25 C         139.9887  137.5842  163.8196 C.2     1  UNL1        0.0905
     26 O         139.0375  137.6436  162.6614 O.co2   1  UNL1       -0.5430
     27 OXT       141.2942  136.8585  163.6816 O.co2   1  UNL1       -0.5430
@<TRIPOS>UNITY_ATOM_ATTR
27 1
charge -1
@<TRIPOS>BOND
     1    16    17    1
     2    17    18    1
     3    17    15    1
     4    15    14    1
     5    14     7    1
     6     7     8   ar
     7     8     9   ar
     8     9    10   ar
     9    10    11    1
    10    10    12   ar
    11    12    13   ar
    12    13     1    1
    13     1     2   ar
    14     2     3   ar
    15     3     4   ar
    16     4     5   ar
    17     5     6   ar
    18     6    19    1
    19    19    20   ar
    20    20    21   ar
    21    21    22   ar
    22    22    23   ar
    23    23    25    1
    24    25    26   ar
    25    25    27   ar
    26    23    24   ar
    27    13     7   ar
    28     6     1   ar
    29    24    19   ar
@<TRIPOS>MOLECULE
*****
 27 29 0 0 0
SMALL
GASTEIGER

@<TRIPOS>ATOM
      1 C         140.5617  140.6524  167.7736 C.ar    1  UNL1        0.0044
      2 C         139.7966  140.5090  169.0558 C.ar    1  UNL1        0.0001
      3 C         140.4607  139.9166  170.2633 C.ar    1  UNL1        0.0000
      4 C         141.8900  139.4676  170.1886 C.ar    1  UNL1        0.0000
      5 C         142.6552  139.6110  168.9064 C.ar    1  UNL1        0.0015
      6 C         141.9910  140.2034  167.6989 C.ar    1  UNL1        0.0177
      7 C         139.1952  140.3547  165.5841 C.ar    1  UNL1        0.1385
      8 C         138.5311  140.9471  164.3766 C.ar    1  UNL1        0.0378
      9 C         138.5692  142.4296  164.1513 C.ar    1  UNL1        0.0145
     10 C         139.2716  143.3197  165.1333 C.ar    1  UNL1        0.0579
     11 CL        139.3097  144.8022  164.9080 Cl      1  UNL1       -0.0822
     12 C         139.9357  142.7273  166.3407 C.ar    1  UNL1        0.0144
     13 C         139.8975  141.2448  166.5661 C.ar    1  UNL1        0.0349
     14 O         139.1570  138.8722  165.8094 O.3     1  UNL1       -0.4755
     15 C         138.8100  137.9503  164.6782 C.3     1  UNL1        0.2053
     16 C         139.6742  138.0179  162.2290 C.3     1  UNL1        0.0038
     17 C         139.8486  137.5924  163.6568 C.3     1  UNL1        0.0438
     18 C         141.0615  136.8091  164.0631 C.3     1  UNL1        0.0038
     19 C         142.7561  140.3468  166.4167 C.ar    1  UNL1        0.0813
     20 C         143.0880  139.1322  165.6015 C.ar    1  UNL1        0.0191
     21 C         143.8531  139.2756  164.3193 C.ar    1  UNL1        0.0031
     22 C         144.2864  140.6336  163.8523 C.ar    1  UNL1        0.0203
     23 CA        143.9545  141.8483  164.6675 C.ar    1  UNL1        0.0952
     24 N         143.1894  141.7049  165.9497 N.ar    1  UNL1       -0.2442
     25 C         144.3878  143.2062  164.2005 C.2     1  UNL1        0.0905
     26 O         144.6816  143.4415  162.7486 O.co2   1  UNL1       -0.5430
     27 OXT       144.5272  144.3289  165.1855 O.co2   1  UNL1       -0.5430
@<TRIPOS>UNITY_ATOM_ATTR
27 1
charge -1
@<TRIPOS>BOND
     1    16    17    1
     2    17    18    1
     3    17    15    1
     4    15    14    1
     5    14     7    1
     6     7     8   ar
     7     8     9   ar
     8     9    10   ar
     9    10    11    1
    10    10    12   ar
    11    12    13   ar
    12    13     1    1
    13     1     2   ar
    14     2     3   ar
    15     3     4   ar
    16     4     5   ar
    17     5     6   ar
    18     6    19    1
    19    19    20   ar
    20    20    21   ar
    21    21    22   ar
    22    22    23   ar
    23    23    25    1
    24    25    26   ar
    25    25    27   ar
    26    23    24   ar
    27    13     7   ar
    28     6     1   ar
    29    24    19   ar
