@<TRIPOS>MOLECULE
*****
 31 35 0 0 0
SMALL
GASTEIGER

@<TRIPOS>ATOM
      1 C         139.1064  140.1770  165.9969 C.3     1  UNL1        0.0216
      2 C         138.3373  140.8220  164.8824 C.3     1  UNL1        0.0214
      3 C         137.7606  141.7093  163.8193 C.3     1  UNL1        0.0725
      4 N         138.5203  143.0026  163.8325 N.3     1  UNL1       -0.2707
      5 C         139.5666  142.9146  164.9038 C.3     1  UNL1        0.0725
      6 C         139.4534  141.5670  165.5526 C.3     1  UNL1        0.0214
      7 C         140.1181  139.9923  167.0889 C.ar    1  UNL1       -0.0226
      8 C         141.5440  139.6781  166.7451 C.ar    1  UNL1       -0.0043
      9 C         142.5556  139.4934  167.8372 C.ar    1  UNL1       -0.0002
     10 C         142.1414  139.6229  169.2730 C.ar    1  UNL1        0.0045
     11 C         140.7155  139.9371  169.6168 C.ar    1  UNL1        0.0528
     12 C         139.7039  140.1218  168.5247 C.ar    1  UNL1        0.0002
     13 C         140.3012  140.0666  171.0526 C.2     1  UNL1        0.2427
     14 N         139.4903  138.9833  171.6999 N.am    1  UNL1       -0.3253
     15 O         140.6978  141.2793  171.8412 O.2     1  UNL1       -0.2704
     16 H         139.2300  138.1873  171.1823 H       1  UNL1        0.1453
     17 H         139.2184  139.0683  172.6423 H       1  UNL1        0.1453
     18 C         138.7634  137.7675  165.0875 C.3     1  UNL1        0.0003
     19 C         138.4081  138.8510  166.0620 C.3     1  UNL1        0.0041
     20 C         138.2766  144.1776  162.9325 C.3     1  UNL1        0.0999
     21 C         139.3603  144.6544  162.0115 C.3     1  UNL1        0.1110
     22 O         139.5348  145.7385  163.0334 O.3     1  UNL1       -0.3847
     23 C         140.4805  145.3578  161.3042 C.3     1  UNL1        0.0546
     24 C         140.7718  144.6088  160.0376 C.ar    1  UNL1       -0.0237
     25 C         141.7716  144.8381  158.9433 C.ar    1  UNL1       -0.0045
     26 C         141.8313  143.9011  157.7735 C.ar    1  UNL1       -0.0003
     27 C         140.8911  142.7347  157.6981 C.ar    1  UNL1       -0.0003
     28 C         139.8913  142.5054  158.7924 C.ar    1  UNL1       -0.0045
     29 C         139.8316  143.4424  159.9622 C.ar    1  UNL1       -0.0237
     30 C         138.9593  143.4706  161.1821 C.3     1  UNL1        0.0546
     31 H         140.2480  146.3339  162.7546 H       1  UNL1        0.2103
@<TRIPOS>BOND
     1    18    19    1
     2     1    19    1
     3     1     7    1
     4     7     8   ar
     5     8     9   ar
     6     9    10   ar
     7    10    11   ar
     8    11    13    1
     9    13    14   am
    10    13    15    2
    11    11    12   ar
    12     1     2    1
    13     2     3    1
    14     3     4    1
    15     4    20    1
    16    20    21    1
    17    21    22    1
    18    21    23    1
    19    23    24    1
    20    24    25   ar
    21    25    26   ar
    22    26    27   ar
    23    27    28   ar
    24    28    29   ar
    25    29    30    1
    26     4     5    1
    27     6     5    1
    28     6     1    1
    29    12     7   ar
    30     6     2    1
    31    30    21    1
    32    29    24   ar
    33    14    16    1
    34    14    17    1
    35    22    31    1
@<TRIPOS>MOLECULE
*****
 31 35 0 0 0
SMALL
GASTEIGER

@<TRIPOS>ATOM
      1 C         139.2300  139.3572  166.0284 C.3     1  UNL1        0.0216
      2 C         139.2415  138.4390  164.8425 C.3     1  UNL1        0.0214
      3 C         139.5263  137.6607  163.5922 C.3     1  UNL1        0.0725
      4 N         140.8354  138.1379  163.0371 N.3     1  UNL1       -0.2707
      5 C         141.3599  139.2112  163.9443 C.3     1  UNL1        0.0725
      6 C         140.3748  139.3973  165.0600 C.3     1  UNL1        0.0214
      7 C         139.6690  140.4173  166.9948 C.ar    1  UNL1       -0.0226
      8 C         140.0473  141.7794  166.4932 C.ar    1  UNL1       -0.0043
      9 C         140.4863  142.8393  167.4595 C.ar    1  UNL1       -0.0002
     10 C         140.5470  142.5371  168.9275 C.ar    1  UNL1        0.0045
     11 C         140.1688  141.1750  169.4291 C.ar    1  UNL1        0.0528
     12 C         139.7298  140.1151  168.4627 C.ar    1  UNL1        0.0002
     13 C         140.2295  140.8728  170.8971 C.2     1  UNL1        0.2427
     14 N         139.9461  139.4845  171.3894 N.am    1  UNL1       -0.3253
     15 O         140.5737  141.9589  171.8728 O.2     1  UNL1       -0.2704
     16 H         139.7202  138.7717  170.7491 H       1  UNL1        0.1453
     17 H         139.9859  139.2862  172.3529 H       1  UNL1        0.1453
     18 C         137.5848  137.4956  166.7885 C.3     1  UNL1        0.0003
     19 C         137.9328  138.9491  166.6613 C.3     1  UNL1        0.0041
     20 C         141.5030  137.6309  161.7932 C.3     1  UNL1        0.0999
     21 C         142.5204  138.4790  161.0891 C.3     1  UNL1        0.1110
     22 O         143.5102  137.5973  161.7913 O.3     1  UNL1       -0.3847
     23 C         143.7447  139.1427  160.5318 C.3     1  UNL1        0.0546
     24 C         143.2989  140.2573  159.6324 C.ar    1  UNL1       -0.0237
     25 C         144.0649  141.2526  158.8123 C.ar    1  UNL1       -0.0045
     26 C         143.3312  142.2730  157.9937 C.ar    1  UNL1       -0.0003
     27 C         141.8314  142.2982  157.9951 C.ar    1  UNL1       -0.0003
     28 C         141.0654  141.3029  158.8152 C.ar    1  UNL1       -0.0045
     29 C         141.7991  140.2825  159.6338 C.ar    1  UNL1       -0.0237
     30 C         141.3180  139.1834  160.5341 C.3     1  UNL1        0.0546
     31 H         144.4106  137.8706  161.5560 H       1  UNL1        0.2103
@<TRIPOS>BOND
     1    18    19    1
     2     1    19    1
     3     1     7    1
     4     7     8   ar
     5     8     9   ar
     6     9    10   ar
     7    10    11   ar
     8    11    13    1
     9    13    14   am
    10    13    15    2
    11    11    12   ar
    12     1     2    1
    13     2     3    1
    14     3     4    1
    15     4    20    1
    16    20    21    1
    17    21    22    1
    18    21    23    1
    19    23    24    1
    20    24    25   ar
    21    25    26   ar
    22    26    27   ar
    23    27    28   ar
    24    28    29   ar
    25    29    30    1
    26     4     5    1
    27     6     5    1
    28     6     1    1
    29    12     7   ar
    30     6     2    1
    31    30    21    1
    32    29    24   ar
    33    14    16    1
    34    14    17    1
    35    22    31    1
@<TRIPOS>MOLECULE
*****
 31 35 0 0 0
SMALL
GASTEIGER

@<TRIPOS>ATOM
      1 C         139.3158  140.0805  165.8842 C.3     1  UNL1        0.0216
      2 C         138.6689  140.6619  164.6622 C.3     1  UNL1        0.0214
      3 C         138.2482  141.4595  163.4635 C.3     1  UNL1        0.0725
      4 N         139.1949  142.6140  163.3192 N.3     1  UNL1       -0.2707
      5 C         140.2007  142.5301  164.4289 C.3     1  UNL1        0.0725
      6 C         139.8756  141.3237  165.2589 C.3     1  UNL1        0.0214
      7 C         140.2725  139.9101  167.0270 C.ar    1  UNL1       -0.0226
      8 C         141.7064  139.5605  166.7590 C.ar    1  UNL1       -0.0043
      9 C         142.6630  139.3902  167.9018 C.ar    1  UNL1       -0.0002
     10 C         142.1857  139.5695  169.3125 C.ar    1  UNL1        0.0045
     11 C         140.7519  139.9191  169.5804 C.ar    1  UNL1        0.0528
     12 C         139.7952  140.0894  168.4377 C.ar    1  UNL1        0.0002
     13 C         140.2746  140.0984  170.9911 C.2     1  UNL1        0.2427
     14 N         139.5206  138.9958  171.6736 N.am    1  UNL1       -0.3253
     15 O         140.5513  141.3802  171.7194 O.2     1  UNL1       -0.2704
     16 H         139.3390  138.1545  171.1957 H       1  UNL1        0.1453
     17 H         139.2073  139.1135  172.5995 H       1  UNL1        0.1453
     18 C         138.6972  137.6034  165.4034 C.3     1  UNL1        0.0003
     19 C         138.4238  138.8964  166.1128 C.3     1  UNL1        0.0041
     20 C         139.1446  143.6675  162.2526 C.3     1  UNL1        0.0999
     21 C         139.4290  143.3040  160.8254 C.3     1  UNL1        0.1110
     22 O         137.9356  143.2186  160.7143 O.3     1  UNL1       -0.3847
     23 C         139.4013  142.9226  159.3750 C.3     1  UNL1        0.0546
     24 C         140.8181  142.8483  158.8880 C.ar    1  UNL1       -0.0237
     25 C         141.4022  142.5186  157.5464 C.ar    1  UNL1       -0.0045
     26 C         142.8898  142.5243  157.3542 C.ar    1  UNL1       -0.0003
     27 C         143.7933  142.8597  158.5037 C.ar    1  UNL1       -0.0003
     28 C         143.2091  143.1894  159.8453 C.ar    1  UNL1       -0.0045
     29 C         141.7215  143.1838  160.0375 C.ar    1  UNL1       -0.0237
     30 C         140.8630  143.4654  161.2348 C.3     1  UNL1        0.0546
     31 H         137.6923  142.9719  159.8083 H       1  UNL1        0.2103
@<TRIPOS>BOND
     1    18    19    1
     2     1    19    1
     3     1     7    1
     4     7     8   ar
     5     8     9   ar
     6     9    10   ar
     7    10    11   ar
     8    11    13    1
     9    13    14   am
    10    13    15    2
    11    11    12   ar
    12     1     2    1
    13     2     3    1
    14     3     4    1
    15     4    20    1
    16    20    21    1
    17    21    22    1
    18    21    23    1
    19    23    24    1
    20    24    25   ar
    21    25    26   ar
    22    26    27   ar
    23    27    28   ar
    24    28    29   ar
    25    29    30    1
    26     4     5    1
    27     6     5    1
    28     6     1    1
    29    12     7   ar
    30     6     2    1
    31    30    21    1
    32    29    24   ar
    33    14    16    1
    34    14    17    1
    35    22    31    1
@<TRIPOS>MOLECULE
*****
 31 35 0 0 0
SMALL
GASTEIGER

@<TRIPOS>ATOM
      1 C         140.5300  142.4179  165.3955 C.3     1  UNL1        0.0216
      2 C         141.2787  142.6817  164.1229 C.3     1  UNL1        0.0214
      3 C         142.2393  142.7492  162.9727 C.3     1  UNL1        0.0725
      4 N         143.4082  141.8654  163.2925 N.3     1  UNL1       -0.2707
      5 C         143.1702  141.2516  164.6403 C.3     1  UNL1        0.0725
      6 C         141.8542  141.7561  165.1535 C.3     1  UNL1        0.0214
      7 C         140.2013  141.8565  166.7472 C.ar    1  UNL1       -0.0226
      8 C         139.7191  140.4419  166.8749 C.ar    1  UNL1       -0.0043
      9 C         139.3904  139.8807  168.2265 C.ar    1  UNL1       -0.0002
     10 C         139.5441  140.7340  169.4505 C.ar    1  UNL1        0.0045
     11 C         140.0264  142.1486  169.3228 C.ar    1  UNL1        0.0528
     12 C         140.3550  142.7099  167.9712 C.ar    1  UNL1        0.0002
     13 C         140.1800  143.0020  170.5468 C.2     1  UNL1        0.2427
     14 N         140.1163  144.4963  170.4322 N.am    1  UNL1       -0.3253
     15 O         140.3974  142.3612  171.8855 O.2     1  UNL1       -0.2704
     16 H         139.9736  144.9169  169.5536 H       1  UNL1        0.1453
     17 H         140.2171  145.0563  171.2355 H       1  UNL1        0.1453
     18 C         139.4815  144.6993  164.7276 C.3     1  UNL1        0.0003
     19 C         139.3199  143.2746  165.1682 C.3     1  UNL1        0.0041
     20 C         144.6051  141.6356  162.4180 C.3     1  UNL1        0.0999
     21 C         144.4437  141.5684  160.9282 C.3     1  UNL1        0.1110
     22 O         145.0162  142.9545  160.9615 O.3     1  UNL1       -0.3847
     23 C         144.4020  141.7910  159.4454 C.3     1  UNL1        0.0546
     24 C         143.8374  140.5565  158.8071 C.ar    1  UNL1       -0.0237
     25 C         143.5634  140.2025  157.3755 C.ar    1  UNL1       -0.0045
     26 C         142.9821  138.8630  157.0322 C.ar    1  UNL1       -0.0003
     27 C         142.6749  137.8775  158.1205 C.ar    1  UNL1       -0.0003
     28 C         142.9490  138.2315  159.5521 C.ar    1  UNL1       -0.0045
     29 C         143.5302  139.5710  159.8954 C.ar    1  UNL1       -0.0237
     30 C         143.9049  140.1964  161.2063 C.3     1  UNL1        0.0546
     31 H         145.0773  143.3008  160.0575 H       1  UNL1        0.2103
@<TRIPOS>BOND
     1    18    19    1
     2     1    19    1
     3     1     7    1
     4     7     8   ar
     5     8     9   ar
     6     9    10   ar
     7    10    11   ar
     8    11    13    1
     9    13    14   am
    10    13    15    2
    11    11    12   ar
    12     1     2    1
    13     2     3    1
    14     3     4    1
    15     4    20    1
    16    20    21    1
    17    21    22    1
    18    21    23    1
    19    23    24    1
    20    24    25   ar
    21    25    26   ar
    22    26    27   ar
    23    27    28   ar
    24    28    29   ar
    25    29    30    1
    26     4     5    1
    27     6     5    1
    28     6     1    1
    29    12     7   ar
    30     6     2    1
    31    30    21    1
    32    29    24   ar
    33    14    16    1
    34    14    17    1
    35    22    31    1
@<TRIPOS>MOLECULE
*****
 31 35 0 0 0
SMALL
GASTEIGER

@<TRIPOS>ATOM
      1 C         139.8796  142.2691  166.0640 C.3     1  UNL1        0.0216
      2 C         139.0649  141.9357  164.8496 C.3     1  UNL1        0.0214
      3 C         138.3605  141.3123  163.6812 C.3     1  UNL1        0.0725
      4 N         138.7180  139.8560  163.6475 N.3     1  UNL1       -0.2707
      5 C         139.6434  139.5792  164.7951 C.3     1  UNL1        0.0725
      6 C         139.8578  140.8645  165.5380 C.3     1  UNL1        0.0214
      7 C         140.7976  142.0937  167.2374 C.ar    1  UNL1       -0.0226
      8 C         142.2709  142.3258  167.0784 C.ar    1  UNL1       -0.0043
      9 C         143.1888  142.1503  168.2518 C.ar    1  UNL1       -0.0002
     10 C         142.6332  141.7427  169.5841 C.ar    1  UNL1        0.0045
     11 C         141.1599  141.5105  169.7431 C.ar    1  UNL1        0.0528
     12 C         140.2420  141.6860  168.5697 C.ar    1  UNL1        0.0002
     13 C         140.6043  141.1029  171.0755 C.2     1  UNL1        0.2427
     14 N         140.0576  139.7194  171.2686 N.am    1  UNL1       -0.3253
     15 O         140.5954  142.0785  172.2147 O.2     1  UNL1       -0.2704
     16 H         140.0634  139.0790  170.5209 H       1  UNL1        0.1453
     17 H         139.6930  139.4519  172.1431 H       1  UNL1        0.1453
     18 C         139.4586  144.5771  164.9478 C.3     1  UNL1        0.0003
     19 C         139.5828  143.7346  166.1826 C.3     1  UNL1        0.0041
     20 C         138.2350  138.8525  162.6426 C.3     1  UNL1        0.0999
     21 C         138.5492  139.0372  161.1876 C.3     1  UNL1        0.1110
     22 O         137.1257  139.5020  161.1007 O.3     1  UNL1       -0.3847
     23 C         138.5660  139.3189  159.7144 C.3     1  UNL1        0.0546
     24 C         139.9341  138.9897  159.1949 C.ar    1  UNL1       -0.0237
     25 C         140.5322  139.0691  157.8217 C.ar    1  UNL1       -0.0045
     26 C         141.9592  138.6632  157.6006 C.ar    1  UNL1       -0.0003
     27 C         142.7881  138.1780  158.7527 C.ar    1  UNL1       -0.0003
     28 C         142.1900  138.0986  160.1260 C.ar    1  UNL1       -0.0045
     29 C         140.7630  138.5044  160.3471 C.ar    1  UNL1       -0.0237
     30 C         139.9071  138.5338  161.5786 C.3     1  UNL1        0.0546
     31 H         136.9204  139.7451  160.1844 H       1  UNL1        0.2103
@<TRIPOS>BOND
     1    18    19    1
     2     1    19    1
     3     1     7    1
     4     7     8   ar
     5     8     9   ar
     6     9    10   ar
     7    10    11   ar
     8    11    13    1
     9    13    14   am
    10    13    15    2
    11    11    12   ar
    12     1     2    1
    13     2     3    1
    14     3     4    1
    15     4    20    1
    16    20    21    1
    17    21    22    1
    18    21    23    1
    19    23    24    1
    20    24    25   ar
    21    25    26   ar
    22    26    27   ar
    23    27    28   ar
    24    28    29   ar
    25    29    30    1
    26     4     5    1
    27     6     5    1
    28     6     1    1
    29    12     7   ar
    30     6     2    1
    31    30    21    1
    32    29    24   ar
    33    14    16    1
    34    14    17    1
    35    22    31    1
@<TRIPOS>MOLECULE
*****
 31 35 0 0 0
SMALL
GASTEIGER

@<TRIPOS>ATOM
      1 C         141.4471  139.9393  166.0309 C.3     1  UNL1        0.0216
      2 C         140.7048  139.5572  164.7849 C.3     1  UNL1        0.0214
      3 C         139.7725  139.4115  163.6188 C.3     1  UNL1        0.0725
      4 N         138.7094  140.4626  163.7410 N.3     1  UNL1       -0.2707
      5 C         138.9846  141.2580  164.9827 C.3     1  UNL1        0.0725
      6 C         140.2177  140.6984  165.6278 C.3     1  UNL1        0.0214
      7 C         141.8059  140.6736  167.2888 C.ar    1  UNL1       -0.0226
      8 C         142.9466  141.6477  167.2893 C.ar    1  UNL1       -0.0043
      9 C         143.3053  142.3819  168.5472 C.ar    1  UNL1       -0.0002
     10 C         142.5233  142.1421  169.8046 C.ar    1  UNL1        0.0045
     11 C         141.3826  141.1680  169.8040 C.ar    1  UNL1        0.0528
     12 C         141.0239  140.4338  168.5462 C.ar    1  UNL1        0.0002
     13 C         140.6006  140.9282  171.0614 C.2     1  UNL1        0.2427
     14 N         139.9102  139.6139  171.2761 N.am    1  UNL1       -0.3253
     15 O         140.5090  142.0026  172.1041 O.2     1  UNL1       -0.2704
     16 H         139.9703  138.9087  170.5917 H       1  UNL1        0.1453
     17 H         139.3970  139.4565  172.1013 H       1  UNL1        0.1453
     18 C         143.4428  138.8263  164.7946 C.3     1  UNL1        0.0003
     19 C         142.5519  138.9253  165.9973 C.3     1  UNL1        0.0041
     20 C         137.5710  140.6803  162.7888 C.3     1  UNL1        0.0999
     21 C         137.7791  140.4914  161.3154 C.3     1  UNL1        0.1110
     22 O         137.1434  139.1544  161.5565 O.3     1  UNL1       -0.3847
     23 C         137.8543  140.0232  159.8923 C.3     1  UNL1        0.0546
     24 C         138.4931  141.1102  159.0797 C.ar    1  UNL1       -0.0237
     25 C         138.8250  141.2092  157.6203 C.ar    1  UNL1       -0.0045
     26 C         139.4764  142.4483  157.0817 C.ar    1  UNL1       -0.0003
     27 C         139.7960  143.5885  158.0025 C.ar    1  UNL1       -0.0003
     28 C         139.4641  143.4895  159.4619 C.ar    1  UNL1       -0.0045
     29 C         138.8126  142.2504  160.0006 C.ar    1  UNL1       -0.0237
     30 C         138.3714  141.8679  161.3822 C.3     1  UNL1        0.0546
     31 H         137.0932  138.6648  160.7207 H       1  UNL1        0.2103
@<TRIPOS>BOND
     1    18    19    1
     2     1    19    1
     3     1     7    1
     4     7     8   ar
     5     8     9   ar
     6     9    10   ar
     7    10    11   ar
     8    11    13    1
     9    13    14   am
    10    13    15    2
    11    11    12   ar
    12     1     2    1
    13     2     3    1
    14     3     4    1
    15     4    20    1
    16    20    21    1
    17    21    22    1
    18    21    23    1
    19    23    24    1
    20    24    25   ar
    21    25    26   ar
    22    26    27   ar
    23    27    28   ar
    24    28    29   ar
    25    29    30    1
    26     4     5    1
    27     6     5    1
    28     6     1    1
    29    12     7   ar
    30     6     2    1
    31    30    21    1
    32    29    24   ar
    33    14    16    1
    34    14    17    1
    35    22    31    1
@<TRIPOS>MOLECULE
*****
 31 35 0 0 0
SMALL
GASTEIGER

@<TRIPOS>ATOM
      1 C         140.7969  140.0682  166.6483 C.3     1  UNL1        0.0216
      2 C         141.0529  139.6252  165.2383 C.3     1  UNL1        0.0214
      3 C         141.6101  139.1887  163.9158 C.3     1  UNL1        0.0725
      4 N         143.1037  139.1275  164.0394 N.3     1  UNL1       -0.2707
      5 C         143.4697  139.5262  165.4384 C.3     1  UNL1        0.0725
      6 C         142.2023  139.8337  166.1794 C.3     1  UNL1        0.0214
      7 C         141.0607  140.4794  168.0666 C.ar    1  UNL1       -0.0226
      8 C         141.9474  139.6405  168.9382 C.ar    1  UNL1       -0.0043
      9 C         142.2112  140.0518  170.3565 C.ar    1  UNL1       -0.0002
     10 C         141.5881  141.3020  170.9030 C.ar    1  UNL1        0.0045
     11 C         140.7013  142.1410  170.0313 C.ar    1  UNL1        0.0528
     12 C         140.4376  141.7297  168.6131 C.ar    1  UNL1        0.0002
     13 C         140.0783  143.3912  170.5778 C.2     1  UNL1        0.2427
     14 N         138.8532  143.3041  171.4390 N.am    1  UNL1       -0.3253
     15 O         140.6803  144.7286  170.2632 O.2     1  UNL1       -0.2704
     16 H         138.4581  142.4263  171.6455 H       1  UNL1        0.1453
     17 H         138.4443  144.1247  171.7977 H       1  UNL1        0.1453
     18 C         138.4763  138.9260  166.4030 C.3     1  UNL1        0.0003
     19 C         139.2999  140.1599  166.6248 C.3     1  UNL1        0.0041
     20 C         144.0629  138.7363  162.9546 C.3     1  UNL1        0.0999
     21 C         143.6697  138.8884  161.5151 C.3     1  UNL1        0.1110
     22 O         143.3188  137.4338  161.6207 O.3     1  UNL1       -0.3847
     23 C         143.2032  138.7363  160.0976 C.3     1  UNL1        0.0546
     24 C         143.3480  140.0651  159.4169 C.ar    1  UNL1       -0.0237
     25 C         143.0454  140.5146  158.0182 C.ar    1  UNL1       -0.0045
     26 C         143.2988  141.9373  157.6163 C.ar    1  UNL1       -0.0003
     27 C         143.8549  142.9106  158.6130 C.ar    1  UNL1       -0.0003
     28 C         144.1575  142.4611  160.0117 C.ar    1  UNL1       -0.0045
     29 C         143.9041  141.0384  160.4136 C.ar    1  UNL1       -0.0237
     30 C         144.1029  140.3111  161.7104 C.3     1  UNL1        0.0546
     31 H         142.9796  137.1203  160.7677 H       1  UNL1        0.2103
@<TRIPOS>BOND
     1    18    19    1
     2     1    19    1
     3     1     7    1
     4     7     8   ar
     5     8     9   ar
     6     9    10   ar
     7    10    11   ar
     8    11    13    1
     9    13    14   am
    10    13    15    2
    11    11    12   ar
    12     1     2    1
    13     2     3    1
    14     3     4    1
    15     4    20    1
    16    20    21    1
    17    21    22    1
    18    21    23    1
    19    23    24    1
    20    24    25   ar
    21    25    26   ar
    22    26    27   ar
    23    27    28   ar
    24    28    29   ar
    25    29    30    1
    26     4     5    1
    27     6     5    1
    28     6     1    1
    29    12     7   ar
    30     6     2    1
    31    30    21    1
    32    29    24   ar
    33    14    16    1
    34    14    17    1
    35    22    31    1
@<TRIPOS>MOLECULE
*****
 31 35 0 0 0
SMALL
GASTEIGER

@<TRIPOS>ATOM
      1 C         141.6635  142.2900  165.6198 C.3     1  UNL1        0.0216
      2 C         141.8917  142.9641  164.2994 C.3     1  UNL1        0.0214
      3 C         141.8137  143.7044  162.9971 C.3     1  UNL1        0.0725
      4 N         140.3977  144.1612  162.8076 N.3     1  UNL1       -0.2707
      5 C         139.6003  143.7034  163.9927 C.3     1  UNL1        0.0725
      6 C         140.5237  142.9635  164.9147 C.3     1  UNL1        0.0214
      7 C         140.9539  141.7893  166.8429 C.ar    1  UNL1       -0.0226
      8 C         140.2940  140.4423  166.8286 C.ar    1  UNL1       -0.0043
      9 C         139.5845  139.9417  168.0517 C.ar    1  UNL1       -0.0002
     10 C         139.5349  140.7881  169.2891 C.ar    1  UNL1        0.0045
     11 C         140.1948  142.1350  169.3034 C.ar    1  UNL1        0.0528
     12 C         140.9043  142.6356  168.0803 C.ar    1  UNL1        0.0002
     13 C         140.1452  142.9814  170.5408 C.2     1  UNL1        0.2427
     14 N         139.9855  144.4685  170.4265 N.am    1  UNL1       -0.3253
     15 O         140.2553  142.3407  171.8926 O.2     1  UNL1       -0.2704
     16 H         139.9133  144.8890  169.5392 H       1  UNL1        0.1453
     17 H         139.9530  145.0240  171.2386 H       1  UNL1        0.1453
     18 C         143.6046  140.6381  165.1161 C.3     1  UNL1        0.0003
     19 C         143.0497  141.7902  165.9001 C.3     1  UNL1        0.0041
     20 C         139.8713  144.9394  161.6382 C.3     1  UNL1        0.0999
     21 C         139.7785  144.2930  160.2878 C.3     1  UNL1        0.1110
     22 O         138.7835  143.3943  160.9605 O.3     1  UNL1       -0.3847
     23 C         139.4777  143.4588  159.0780 C.3     1  UNL1        0.0546
     24 C         140.3061  143.9769  157.9399 C.ar    1  UNL1       -0.0237
     25 C         140.4253  143.5467  156.5080 C.ar    1  UNL1       -0.0045
     26 C         141.3573  144.2709  155.5824 C.ar    1  UNL1       -0.0003
     27 C         142.1702  145.4254  156.0888 C.ar    1  UNL1       -0.0003
     28 C         142.0509  145.8557  157.5208 C.ar    1  UNL1       -0.0045
     29 C         141.1189  145.1314  158.4464 C.ar    1  UNL1       -0.0237
     30 C         140.7928  145.3267  159.8974 C.3     1  UNL1        0.0546
     31 H         138.4484  142.7468  160.3207 H       1  UNL1        0.2103
@<TRIPOS>BOND
     1    18    19    1
     2     1    19    1
     3     1     7    1
     4     7     8   ar
     5     8     9   ar
     6     9    10   ar
     7    10    11   ar
     8    11    13    1
     9    13    14   am
    10    13    15    2
    11    11    12   ar
    12     1     2    1
    13     2     3    1
    14     3     4    1
    15     4    20    1
    16    20    21    1
    17    21    22    1
    18    21    23    1
    19    23    24    1
    20    24    25   ar
    21    25    26   ar
    22    26    27   ar
    23    27    28   ar
    24    28    29   ar
    25    29    30    1
    26     4     5    1
    27     6     5    1
    28     6     1    1
    29    12     7   ar
    30     6     2    1
    31    30    21    1
    32    29    24   ar
    33    14    16    1
    34    14    17    1
    35    22    31    1
@<TRIPOS>MOLECULE
*****
 31 35 0 0 0
SMALL
GASTEIGER

@<TRIPOS>ATOM
      1 C         140.7679  140.0831  166.4950 C.3     1  UNL1        0.0216
      2 C         140.7152  139.5687  165.0870 C.3     1  UNL1        0.0214
      3 C         140.3543  139.1056  163.7067 C.3     1  UNL1        0.0725
      4 N         138.8696  139.2438  163.5447 N.3     1  UNL1       -0.2707
      5 C         138.3127  139.7922  164.8250 C.3     1  UNL1        0.0725
      6 C         139.4534  139.9930  165.7782 C.3     1  UNL1        0.0214
      7 C         140.3087  140.6325  167.8131 C.ar    1  UNL1       -0.0226
      8 C         139.2939  139.8839  168.6253 C.ar    1  UNL1       -0.0043
      9 C         138.8348  140.4334  169.9434 C.ar    1  UNL1       -0.0002
     10 C         139.3906  141.7315  170.4493 C.ar    1  UNL1        0.0045
     11 C         140.4054  142.4801  169.6372 C.ar    1  UNL1        0.0528
     12 C         140.8645  141.9307  168.3191 C.ar    1  UNL1        0.0002
     13 C         140.9612  143.7783  170.1431 C.2     1  UNL1        0.2427
     14 N         140.0617  144.9681  170.3021 N.am    1  UNL1       -0.3253
     15 O         142.4165  143.8867  170.4900 O.2     1  UNL1       -0.2704
     16 H         139.1065  144.8970  170.0744 H       1  UNL1        0.1453
     17 H         140.4264  145.8201  170.6341 H       1  UNL1        0.1453
     18 C         143.2138  140.1158  165.6195 C.3     1  UNL1        0.0003
     19 C         142.2419  139.9824  166.7542 C.3     1  UNL1        0.0041
     20 C         138.0802  138.8948  162.3179 C.3     1  UNL1        0.0999
     21 C         138.7072  139.0221  160.9612 C.3     1  UNL1        0.1110
     22 O         139.0028  137.5617  161.1342 O.3     1  UNL1       -0.3847
     23 C         139.3960  138.8441  159.6407 C.3     1  UNL1        0.0546
     24 C         139.3949  140.1679  158.9352 C.ar    1  UNL1       -0.0237
     25 C         139.9327  140.5949  157.6017 C.ar    1  UNL1       -0.0045
     26 C         139.7811  142.0181  157.1527 C.ar    1  UNL1       -0.0003
     27 C         139.0916  143.0142  158.0372 C.ar    1  UNL1       -0.0003
     28 C         138.5538  142.5871  159.3708 C.ar    1  UNL1       -0.0045
     29 C         138.7055  141.1640  159.8198 C.ar    1  UNL1       -0.0237
     30 C         138.2804  140.4558  161.0719 C.3     1  UNL1        0.0546
     31 H         139.4699  137.2314  160.3508 H       1  UNL1        0.2103
@<TRIPOS>BOND
     1    18    19    1
     2     1    19    1
     3     1     7    1
     4     7     8   ar
     5     8     9   ar
     6     9    10   ar
     7    10    11   ar
     8    11    13    1
     9    13    14   am
    10    13    15    2
    11    11    12   ar
    12     1     2    1
    13     2     3    1
    14     3     4    1
    15     4    20    1
    16    20    21    1
    17    21    22    1
    18    21    23    1
    19    23    24    1
    20    24    25   ar
    21    25    26   ar
    22    26    27   ar
    23    27    28   ar
    24    28    29   ar
    25    29    30    1
    26     4     5    1
    27     6     5    1
    28     6     1    1
    29    12     7   ar
    30     6     2    1
    31    30    21    1
    32    29    24   ar
    33    14    16    1
    34    14    17    1
    35    22    31    1
