@<TRIPOS>MOLECULE
*****
 33 36 0 0 0
SMALL
GASTEIGER

@<TRIPOS>ATOM
      1 C         140.8540  141.1419  168.0447 C.ar    1  UNL1        0.1399
      2 C         140.4380  141.1472  169.4859 C.ar    1  UNL1        0.0554
      3 C         139.2503  140.3442  169.9267 C.ar    1  UNL1        0.1047
      4 N         138.4784  139.5358  168.9263 N.ar    1  UNL1       -0.2119
      5 C         138.8943  139.5305  167.4851 C.ar    1  UNL1        0.2218
      6 N         140.0821  140.3335  167.0443 N.ar    1  UNL1       -0.1983
      7 N         142.0418  141.9449  167.6040 N.pl3   1  UNL1       -0.2705
      8 C         143.0525  142.4045  168.6126 C.3     1  UNL1        0.1187
      9 C         140.7335  144.9656  160.4775 C.3     1  UNL1        0.0718
     10 C         141.2218  144.2802  161.7191 C.ar    1  UNL1        0.1208
     11 N         140.5380  144.2820  163.0542 N.ar    1  UNL1       -0.2309
     12 C         141.3732  143.4755  164.0040 C.ar    1  UNL1        0.0996
     13 C         141.1960  143.1321  165.4533 C.ar    1  UNL1        0.0355
     14 C         142.2189  142.2884  166.1545 C.ar    1  UNL1        0.0543
     15 C         143.4189  141.7880  165.4064 C.ar    1  UNL1        0.0164
     16 C         143.5961  142.1315  163.9571 C.ar    1  UNL1        0.0200
     17 C         142.5732  142.9752  163.2559 C.ar    1  UNL1        0.0787
     18 N         142.4796  143.4725  161.8438 N.ar    1  UNL1       -0.3129
     19 C         143.4701  143.2085  160.7486 C.3     1  UNL1        0.1316
     20 N         138.1224  138.7221  166.4847 N.pl3   1  UNL1       -0.2825
     21 H         137.4413  138.0805  166.7907 H       1  UNL1        0.1551
     22 C         138.3883  138.8914  165.0183 C.ar    1  UNL1        0.0518
     23 C         138.9577  137.7540  164.2232 C.ar    1  UNL1        0.0148
     24 C         139.2236  137.9233  162.7566 C.ar    1  UNL1        0.0026
     25 C         138.9202  139.2298  162.0852 C.ar    1  UNL1        0.0200
     26 C         138.3507  140.3672  162.8804 C.ar    1  UNL1        0.1229
     27 C         138.0848  140.1980  164.3469 C.ar    1  UNL1        0.0346
     28 S         138.0472  141.6738  162.2090 S.O2    1  UNL1        0.0572
     29 N         137.7437  142.9804  161.5377 N.3     1  UNL1       -0.2035
     30 O         136.8442  141.8461  163.0882 O.2     1  UNL1       -0.1532
     31 O         139.2503  141.5015  161.3298 O.2     1  UNL1       -0.1532
     32 H         136.9037  143.3870  161.9492 H       1  UNL1        0.1442
     33 H         137.5926  142.8236  160.5412 H       1  UNL1        0.1442
@<TRIPOS>BOND
     1     9    10    1
     2    10    11   ar
     3    11    12   ar
     4    12    13   ar
     5    13    14   ar
     6    14     7    1
     7     7     8    1
     8     7     1    1
     9     1     2   ar
    10     2     3   ar
    11     3     4   ar
    12     4     5   ar
    13     5    20    1
    14    20    22    1
    15    22    23   ar
    16    23    24   ar
    17    24    25   ar
    18    25    26   ar
    19    26    28    1
    20    28    29    1
    21    28    30    2
    22    28    31    2
    23    26    27   ar
    24     5     6   ar
    25    14    15   ar
    26    15    16   ar
    27    16    17   ar
    28    17    18   ar
    29    18    19    1
    30    18    10   ar
    31    17    12   ar
    32     6     1   ar
    33    27    22   ar
    34    20    21    1
    35    29    32    1
    36    29    33    1
@<TRIPOS>MOLECULE
*****
 33 36 0 0 0
SMALL
GASTEIGER

@<TRIPOS>ATOM
      1 C         139.3139  138.6738  163.5709 C.ar    1  UNL1        0.1399
      2 C         138.6706  137.6414  162.6932 C.ar    1  UNL1        0.0554
      3 C         137.7362  138.0644  161.5988 C.ar    1  UNL1        0.1047
      4 N         137.4449  139.5198  161.3820 N.ar    1  UNL1       -0.2119
      5 C         138.0881  140.5522  162.2597 C.ar    1  UNL1        0.2218
      6 N         139.0226  140.1292  163.3542 N.ar    1  UNL1       -0.1983
      7 N         140.2484  138.2508  164.6653 N.pl3   1  UNL1       -0.2705
      8 C         141.0542  136.9941  164.5195 C.3     1  UNL1        0.1187
      9 C         143.3300  142.8456  170.2344 C.3     1  UNL1        0.0718
     10 C         142.5005  141.9859  169.3273 C.ar    1  UNL1        0.1208
     11 N         142.9671  141.3362  168.0584 N.ar    1  UNL1       -0.2309
     12 C         141.8138  140.5737  167.4767 C.ar    1  UNL1        0.0996
     13 C         141.6851  139.7400  166.2365 C.ar    1  UNL1        0.0355
     14 C         140.3771  139.0846  165.9057 C.ar    1  UNL1        0.0543
     15 C         139.1977  139.2630  166.8152 C.ar    1  UNL1        0.0164
     16 C         139.3263  140.0967  168.0554 C.ar    1  UNL1        0.0200
     17 C         140.6344  140.7520  168.3862 C.ar    1  UNL1        0.0787
     18 N         141.0588  141.6248  169.5299 N.ar    1  UNL1       -0.3129
     19 C         140.1934  142.0601  170.6752 C.3     1  UNL1        0.1316
     20 N         137.7969  142.0076  162.0429 N.pl3   1  UNL1       -0.2825
     21 H         137.1035  142.2803  161.3994 H       1  UNL1        0.1551
     22 C         138.5619  143.0474  162.8066 C.ar    1  UNL1        0.0518
     23 C         137.9133  143.7641  163.9536 C.ar    1  UNL1        0.0148
     24 C         138.6784  144.8040  164.7174 C.ar    1  UNL1        0.0026
     25 C         140.0921  145.1272  164.3342 C.ar    1  UNL1        0.0200
     26 C         140.7408  144.4104  163.1871 C.ar    1  UNL1        0.1229
     27 C         139.9757  143.3706  162.4234 C.ar    1  UNL1        0.0346
     28 S         142.1545  144.7336  162.8038 S.O2    1  UNL1        0.0572
     29 N         143.5683  145.0568  162.4206 N.3     1  UNL1       -0.2035
     30 O         142.0605  143.7781  161.6514 O.2     1  UNL1       -0.1532
     31 O         142.2485  145.6891  163.9563 O.2     1  UNL1       -0.1532
     32 H         143.8284  144.5175  161.5949 H       1  UNL1        0.1442
     33 H         144.1923  144.8199  163.1919 H       1  UNL1        0.1442
@<TRIPOS>BOND
     1     9    10    1
     2    10    11   ar
     3    11    12   ar
     4    12    13   ar
     5    13    14   ar
     6    14     7    1
     7     7     8    1
     8     7     1    1
     9     1     2   ar
    10     2     3   ar
    11     3     4   ar
    12     4     5   ar
    13     5    20    1
    14    20    22    1
    15    22    23   ar
    16    23    24   ar
    17    24    25   ar
    18    25    26   ar
    19    26    28    1
    20    28    29    1
    21    28    30    2
    22    28    31    2
    23    26    27   ar
    24     5     6   ar
    25    14    15   ar
    26    15    16   ar
    27    16    17   ar
    28    17    18   ar
    29    18    19    1
    30    18    10   ar
    31    17    12   ar
    32     6     1   ar
    33    27    22   ar
    34    20    21    1
    35    29    32    1
    36    29    33    1
@<TRIPOS>MOLECULE
*****
 33 36 0 0 0
SMALL
GASTEIGER

@<TRIPOS>ATOM
      1 C         141.2373  140.9738  168.4530 C.ar    1  UNL1        0.1399
      2 C         140.8312  141.1283  169.8887 C.ar    1  UNL1        0.0554
      3 C         139.5304  140.5539  170.3662 C.ar    1  UNL1        0.1047
      4 N         138.6357  139.8249  169.4080 N.ar    1  UNL1       -0.2119
      5 C         139.0418  139.6704  167.9723 C.ar    1  UNL1        0.2218
      6 N         140.3426  140.2449  167.4948 N.ar    1  UNL1       -0.1983
      7 N         142.5381  141.5482  167.9755 N.pl3   1  UNL1       -0.2705
      8 C         143.4699  142.2063  168.9495 C.3     1  UNL1        0.1187
      9 C         144.1999  138.5881  160.8974 C.3     1  UNL1        0.0718
     10 C         143.9286  139.4083  162.1236 C.ar    1  UNL1        0.1208
     11 N         143.5522  138.8765  163.4747 N.ar    1  UNL1       -0.2309
     12 C         143.3770  140.0439  164.4002 C.ar    1  UNL1        0.0996
     13 C         143.0080  140.1275  165.8516 C.ar    1  UNL1        0.0355
     14 C         142.9071  141.4645  166.5240 C.ar    1  UNL1        0.0543
     15 C         143.1753  142.7180  165.7448 C.ar    1  UNL1        0.0164
     16 C         143.5443  142.6343  164.2934 C.ar    1  UNL1        0.0200
     17 C         143.6452  141.2973  163.6210 C.ar    1  UNL1        0.0787
     18 N         143.9861  140.9045  162.2141 N.ar    1  UNL1       -0.3129
     19 C         144.3249  141.8431  161.0942 C.3     1  UNL1        0.1316
     20 N         138.1471  138.9415  167.0141 N.pl3   1  UNL1       -0.2825
     21 H         137.4299  138.3599  167.3556 H       1  UNL1        0.1551
     22 C         138.3450  139.0988  165.5356 C.ar    1  UNL1        0.0518
     23 C         138.8886  137.9588  164.7263 C.ar    1  UNL1        0.0148
     24 C         139.0865  138.1161  163.2477 C.ar    1  UNL1        0.0026
     25 C         138.7409  139.4132  162.5785 C.ar    1  UNL1        0.0200
     26 C         138.1973  140.5532  163.3879 C.ar    1  UNL1        0.1229
     27 C         137.9993  140.3959  164.8664 C.ar    1  UNL1        0.0346
     28 S         137.8516  141.8504  162.7187 S.O2    1  UNL1        0.0572
     29 N         137.5060  143.1476  162.0495 N.3     1  UNL1       -0.2035
     30 O         137.3309  141.0983  161.5299 O.2     1  UNL1       -0.1532
     31 O         138.3723  142.6024  163.9075 O.2     1  UNL1       -0.1532
     32 H         137.0938  142.9595  161.1356 H       1  UNL1        0.1442
     33 H         138.3516  143.7058  161.9326 H       1  UNL1        0.1442
@<TRIPOS>BOND
     1     9    10    1
     2    10    11   ar
     3    11    12   ar
     4    12    13   ar
     5    13    14   ar
     6    14     7    1
     7     7     8    1
     8     7     1    1
     9     1     2   ar
    10     2     3   ar
    11     3     4   ar
    12     4     5   ar
    13     5    20    1
    14    20    22    1
    15    22    23   ar
    16    23    24   ar
    17    24    25   ar
    18    25    26   ar
    19    26    28    1
    20    28    29    1
    21    28    30    2
    22    28    31    2
    23    26    27   ar
    24     5     6   ar
    25    14    15   ar
    26    15    16   ar
    27    16    17   ar
    28    17    18   ar
    29    18    19    1
    30    18    10   ar
    31    17    12   ar
    32     6     1   ar
    33    27    22   ar
    34    20    21    1
    35    29    32    1
    36    29    33    1
@<TRIPOS>MOLECULE
*****
 33 36 0 0 0
SMALL
GASTEIGER

@<TRIPOS>ATOM
      1 C         139.1133  139.8664  162.6568 C.ar    1  UNL1        0.1399
      2 C         138.3254  138.9973  161.7220 C.ar    1  UNL1        0.0554
      3 C         139.0332  138.1758  160.6856 C.ar    1  UNL1        0.1047
      4 N         140.5290  138.2234  160.5840 N.ar    1  UNL1       -0.2119
      5 C         141.3170  139.0924  161.5188 C.ar    1  UNL1        0.2218
      6 N         140.6091  139.9139  162.5553 N.ar    1  UNL1       -0.1983
      7 N         138.4055  140.6878  163.6932 N.pl3   1  UNL1       -0.2705
      8 C         137.2204  141.5227  163.3076 C.3     1  UNL1        0.1187
      9 C         142.0439  142.7953  170.3222 C.3     1  UNL1        0.0718
     10 C         141.2556  142.1685  169.2106 C.ar    1  UNL1        0.1208
     11 N         141.1247  142.7000  167.8140 N.ar    1  UNL1       -0.2309
     12 C         140.2480  141.7601  167.0406 C.ar    1  UNL1        0.0996
     13 C         139.7709  141.7735  165.6186 C.ar    1  UNL1        0.0355
     14 C         138.8827  140.6745  165.1153 C.ar    1  UNL1        0.0543
     15 C         138.4717  139.5622  166.0339 C.ar    1  UNL1        0.0164
     16 C         138.9489  139.5489  167.4558 C.ar    1  UNL1        0.0200
     17 C         139.8370  140.6478  167.9592 C.ar    1  UNL1        0.0787
     18 N         140.4598  140.9002  169.3003 N.ar    1  UNL1       -0.3129
     19 C         140.3125  140.0360  170.5175 C.3     1  UNL1        0.1316
     20 N         142.8128  139.1399  161.4173 N.pl3   1  UNL1       -0.2825
     21 H         143.2812  138.5600  160.7742 H       1  UNL1        0.1551
     22 C         143.5949  140.0710  162.2955 C.ar    1  UNL1        0.0518
     23 C         144.5406  139.5182  163.3202 C.ar    1  UNL1        0.0148
     24 C         145.3228  140.4493  164.1985 C.ar    1  UNL1        0.0026
     25 C         145.1593  141.9331  164.0520 C.ar    1  UNL1        0.0200
     26 C         144.2136  142.4859  163.0272 C.ar    1  UNL1        0.1229
     27 C         143.4314  141.5548  162.1490 C.ar    1  UNL1        0.0346
     28 S         144.0500  143.9697  162.8807 S.O2    1  UNL1        0.0572
     29 N         143.8865  145.4536  162.7342 N.3     1  UNL1       -0.2035
     30 O         143.8665  143.8034  161.4013 O.2     1  UNL1       -0.1532
     31 O         144.2336  144.1360  164.3602 O.2     1  UNL1       -0.1532
     32 H         143.7318  145.6833  161.7526 H       1  UNL1        0.1442
     33 H         144.7299  145.9228  163.0644 H       1  UNL1        0.1442
@<TRIPOS>BOND
     1     9    10    1
     2    10    11   ar
     3    11    12   ar
     4    12    13   ar
     5    13    14   ar
     6    14     7    1
     7     7     8    1
     8     7     1    1
     9     1     2   ar
    10     2     3   ar
    11     3     4   ar
    12     4     5   ar
    13     5    20    1
    14    20    22    1
    15    22    23   ar
    16    23    24   ar
    17    24    25   ar
    18    25    26   ar
    19    26    28    1
    20    28    29    1
    21    28    30    2
    22    28    31    2
    23    26    27   ar
    24     5     6   ar
    25    14    15   ar
    26    15    16   ar
    27    16    17   ar
    28    17    18   ar
    29    18    19    1
    30    18    10   ar
    31    17    12   ar
    32     6     1   ar
    33    27    22   ar
    34    20    21    1
    35    29    32    1
    36    29    33    1
@<TRIPOS>MOLECULE
*****
 33 36 0 0 0
SMALL
GASTEIGER

@<TRIPOS>ATOM
      1 C         141.0355  144.3101  161.2877 C.ar    1  UNL1        0.1399
      2 C         140.8435  144.9506  159.9449 C.ar    1  UNL1        0.0554
      3 C         141.8299  144.6952  158.8441 C.ar    1  UNL1        0.1047
      4 N         143.0084  143.7994  159.0861 N.ar    1  UNL1       -0.2119
      5 C         143.2005  143.1589  160.4288 C.ar    1  UNL1        0.2218
      6 N         142.2141  143.4143  161.5296 N.ar    1  UNL1       -0.1983
      7 N         140.0491  144.5655  162.3884 N.pl3   1  UNL1       -0.2705
      8 C         139.1866  145.7922  162.3529 C.3     1  UNL1        0.1187
      9 C         137.8561  138.3223  166.6117 C.3     1  UNL1        0.0718
     10 C         138.4274  139.5854  166.0388 C.ar    1  UNL1        0.1208
     11 N         138.1631  140.1295  164.6662 N.ar    1  UNL1       -0.2309
     12 C         138.9357  141.4065  164.5170 C.ar    1  UNL1        0.0996
     13 C         139.0596  142.3778  163.3807 C.ar    1  UNL1        0.0355
     14 C         139.9252  143.5942  163.5248 C.ar    1  UNL1        0.0543
     15 C         140.6670  143.8395  164.8053 C.ar    1  UNL1        0.0164
     16 C         140.5431  142.8682  165.9416 C.ar    1  UNL1        0.0200
     17 C         139.6775  141.6518  165.7975 C.ar    1  UNL1        0.0787
     18 N         139.3633  140.5263  166.7380 N.ar    1  UNL1       -0.3129
     19 C         139.8923  140.3692  168.1328 C.3     1  UNL1        0.1316
     20 N         144.3791  142.2631  160.6707 N.pl3   1  UNL1       -0.2825
     21 H         145.1730  142.3271  160.0921 H       1  UNL1        0.1551
     22 C         144.3480  141.2698  161.7943 C.ar    1  UNL1        0.0518
     23 C         145.3072  141.4030  162.9397 C.ar    1  UNL1        0.0148
     24 C         145.2762  140.4097  164.0633 C.ar    1  UNL1        0.0026
     25 C         144.2859  139.2833  164.0414 C.ar    1  UNL1        0.0200
     26 C         143.3266  139.1502  162.8959 C.ar    1  UNL1        0.1229
     27 C         143.3577  140.1435  161.7724 C.ar    1  UNL1        0.0346
     28 S         142.3362  138.0238  162.8740 S.O2    1  UNL1        0.0572
     29 N         141.3459  136.8974  162.8521 N.3     1  UNL1       -0.2035
     30 O         142.0441  138.2524  164.3274 O.2     1  UNL1       -0.1532
     31 O         142.6284  137.7952  161.4206 O.2     1  UNL1       -0.1532
     32 H         140.9342  136.7886  163.7789 H       1  UNL1        0.1442
     33 H         141.8192  136.0337  162.5868 H       1  UNL1        0.1442
@<TRIPOS>BOND
     1     9    10    1
     2    10    11   ar
     3    11    12   ar
     4    12    13   ar
     5    13    14   ar
     6    14     7    1
     7     7     8    1
     8     7     1    1
     9     1     2   ar
    10     2     3   ar
    11     3     4   ar
    12     4     5   ar
    13     5    20    1
    14    20    22    1
    15    22    23   ar
    16    23    24   ar
    17    24    25   ar
    18    25    26   ar
    19    26    28    1
    20    28    29    1
    21    28    30    2
    22    28    31    2
    23    26    27   ar
    24     5     6   ar
    25    14    15   ar
    26    15    16   ar
    27    16    17   ar
    28    17    18   ar
    29    18    19    1
    30    18    10   ar
    31    17    12   ar
    32     6     1   ar
    33    27    22   ar
    34    20    21    1
    35    29    32    1
    36    29    33    1
@<TRIPOS>MOLECULE
*****
 33 36 0 0 0
SMALL
GASTEIGER

@<TRIPOS>ATOM
      1 C         141.9618  138.9416  162.5015 C.ar    1  UNL1        0.1399
      2 C         142.8786  137.9111  161.9120 C.ar    1  UNL1        0.0554
      3 C         144.0395  138.3377  161.0633 C.ar    1  UNL1        0.1047
      4 N         144.2836  139.7948  160.8041 N.ar    1  UNL1       -0.2119
      5 C         143.3668  140.8253  161.3935 C.ar    1  UNL1        0.2218
      6 N         142.2058  140.3988  162.2422 N.ar    1  UNL1       -0.1983
      7 N         140.8009  138.5150  163.3502 N.pl3   1  UNL1       -0.2705
      8 C         139.7143  137.6645  162.7620 C.3     1  UNL1        0.1187
      9 C         142.9363  140.1797  170.7185 C.3     1  UNL1        0.0718
     10 C         142.2655  139.9398  169.3985 C.ar    1  UNL1        0.1208
     11 N         142.9315  139.4491  168.1473 N.ar    1  UNL1       -0.2309
     12 C         141.8885  139.3545  167.0734 C.ar    1  UNL1        0.0996
     13 C         141.9629  138.9306  165.6365 C.ar    1  UNL1        0.0355
     14 C         140.7265  138.9389  164.7872 C.ar    1  UNL1        0.0543
     15 C         139.4158  139.3712  165.3748 C.ar    1  UNL1        0.0164
     16 C         139.3415  139.7951  166.8117 C.ar    1  UNL1        0.0200
     17 C         140.5778  139.7867  167.6610 C.ar    1  UNL1        0.0787
     18 N         140.8108  140.1485  169.0980 N.ar    1  UNL1       -0.3129
     19 C         139.7715  140.6337  170.0647 C.3     1  UNL1        0.1316
     20 N         143.6109  142.2825  161.1342 N.pl3   1  UNL1       -0.2825
     21 H         144.2329  142.5584  160.4228 H       1  UNL1        0.1551
     22 C         142.9072  143.3191  161.9589 C.ar    1  UNL1        0.0518
     23 C         143.6910  144.1942  162.8916 C.ar    1  UNL1        0.0148
     24 C         142.9873  145.2310  163.7163 C.ar    1  UNL1        0.0026
     25 C         141.5000  145.3926  163.6083 C.ar    1  UNL1        0.0200
     26 C         140.7162  144.5174  162.6756 C.ar    1  UNL1        0.1229
     27 C         141.4199  143.4807  161.8509 C.ar    1  UNL1        0.0346
     28 S         139.2289  144.6790  162.5676 S.O2    1  UNL1        0.0572
     29 N         137.7415  144.8406  162.4595 N.3     1  UNL1       -0.2035
     30 O         139.1215  144.6908  164.0637 O.2     1  UNL1       -0.1532
     31 O         139.3363  144.6672  161.0715 O.2     1  UNL1       -0.1532
     32 H         137.3356  144.8848  163.3942 H       1  UNL1        0.1442
     33 H         137.3489  144.0455  161.9556 H       1  UNL1        0.1442
@<TRIPOS>BOND
     1     9    10    1
     2    10    11   ar
     3    11    12   ar
     4    12    13   ar
     5    13    14   ar
     6    14     7    1
     7     7     8    1
     8     7     1    1
     9     1     2   ar
    10     2     3   ar
    11     3     4   ar
    12     4     5   ar
    13     5    20    1
    14    20    22    1
    15    22    23   ar
    16    23    24   ar
    17    24    25   ar
    18    25    26   ar
    19    26    28    1
    20    28    29    1
    21    28    30    2
    22    28    31    2
    23    26    27   ar
    24     5     6   ar
    25    14    15   ar
    26    15    16   ar
    27    16    17   ar
    28    17    18   ar
    29    18    19    1
    30    18    10   ar
    31    17    12   ar
    32     6     1   ar
    33    27    22   ar
    34    20    21    1
    35    29    32    1
    36    29    33    1
@<TRIPOS>MOLECULE
*****
 33 36 0 0 0
SMALL
GASTEIGER

@<TRIPOS>ATOM
      1 C         142.8591  139.2437  162.9059 C.ar    1  UNL1        0.1399
      2 C         143.4211  138.1507  162.0459 C.ar    1  UNL1        0.0554
      3 C         142.6920  137.7209  160.8075 C.ar    1  UNL1        0.1047
      4 N         141.4009  138.3841  160.4291 N.ar    1  UNL1       -0.2119
      5 C         140.8389  139.4770  161.2890 C.ar    1  UNL1        0.2218
      6 N         141.5680  139.9069  162.5275 N.ar    1  UNL1       -0.1983
      7 N         143.5882  139.6735  164.1443 N.pl3   1  UNL1       -0.2705
      8 C         145.0762  139.5070  164.2345 C.3     1  UNL1        0.1187
      9 C         138.5724  140.4257  170.1359 C.3     1  UNL1        0.0718
     10 C         139.5997  140.5551  169.0506 C.ar    1  UNL1        0.1208
     11 N         139.9919  139.4849  168.0755 N.ar    1  UNL1       -0.2309
     12 C         141.0499  140.0458  167.1722 C.ar    1  UNL1        0.0996
     13 C         141.8087  139.4494  166.0240 C.ar    1  UNL1        0.0355
     14 C         142.8293  140.2699  165.2926 C.ar    1  UNL1        0.0543
     15 C         143.0911  141.6869  165.7093 C.ar    1  UNL1        0.0164
     16 C         142.3322  142.2833  166.8575 C.ar    1  UNL1        0.0200
     17 C         141.3116  141.4627  167.5890 C.ar    1  UNL1        0.0787
     18 N         140.4154  141.7775  168.7499 N.ar    1  UNL1       -0.3129
     19 C         140.3469  143.0851  169.4816 C.3     1  UNL1        0.1316
     20 N         139.5477  140.1402  160.9105 N.pl3   1  UNL1       -0.2825
     21 H         139.0552  139.8394  160.1129 H       1  UNL1        0.1551
     22 C         139.0071  141.2615  161.7473 C.ar    1  UNL1        0.0518
     23 C         137.8991  141.0014  162.7244 C.ar    1  UNL1        0.0148
     24 C         137.3584  142.1228  163.5612 C.ar    1  UNL1        0.0026
     25 C         137.9257  143.5043  163.4209 C.ar    1  UNL1        0.0200
     26 C         139.0338  143.7644  162.4437 C.ar    1  UNL1        0.1229
     27 C         139.5744  142.6430  161.6070 C.ar    1  UNL1        0.0346
     28 S         139.6011  145.1458  162.3034 S.O2    1  UNL1        0.0572
     29 N         140.1684  146.5273  162.1631 N.3     1  UNL1       -0.2035
     30 O         139.6794  145.2653  163.7966 O.2     1  UNL1       -0.1532
     31 O         139.5228  145.0263  160.8102 O.2     1  UNL1       -0.1532
     32 H         140.3472  146.9170  163.0886 H       1  UNL1        0.1442
     33 H         139.5022  147.1197  161.6676 H       1  UNL1        0.1442
@<TRIPOS>BOND
     1     9    10    1
     2    10    11   ar
     3    11    12   ar
     4    12    13   ar
     5    13    14   ar
     6    14     7    1
     7     7     8    1
     8     7     1    1
     9     1     2   ar
    10     2     3   ar
    11     3     4   ar
    12     4     5   ar
    13     5    20    1
    14    20    22    1
    15    22    23   ar
    16    23    24   ar
    17    24    25   ar
    18    25    26   ar
    19    26    28    1
    20    28    29    1
    21    28    30    2
    22    28    31    2
    23    26    27   ar
    24     5     6   ar
    25    14    15   ar
    26    15    16   ar
    27    16    17   ar
    28    17    18   ar
    29    18    19    1
    30    18    10   ar
    31    17    12   ar
    32     6     1   ar
    33    27    22   ar
    34    20    21    1
    35    29    32    1
    36    29    33    1
@<TRIPOS>MOLECULE
*****
 33 36 0 0 0
SMALL
GASTEIGER

@<TRIPOS>ATOM
      1 C         142.4853  138.9461  162.8722 C.ar    1  UNL1        0.1399
      2 C         142.8339  137.9419  161.8138 C.ar    1  UNL1        0.0554
      3 C         143.6985  138.3426  160.6554 C.ar    1  UNL1        0.1047
      4 N         144.2146  139.7474  160.5554 N.ar    1  UNL1       -0.2119
      5 C         143.8660  140.7516  161.6137 C.ar    1  UNL1        0.2218
      6 N         143.0014  140.3510  162.7721 N.ar    1  UNL1       -0.1983
      7 N         141.6206  138.5455  164.0305 N.pl3   1  UNL1       -0.2705
      8 C         140.6343  137.4257  163.8781 C.3     1  UNL1        0.1187
      9 C         140.4602  143.7881  169.7569 C.3     1  UNL1        0.0718
     10 C         140.8725  142.6708  168.8450 C.ar    1  UNL1        0.1208
     11 N         140.3402  142.4162  167.4659 N.ar    1  UNL1       -0.2309
     12 C         141.0282  141.1999  166.9207 C.ar    1  UNL1        0.0996
     13 C         140.9065  140.4808  165.6099 C.ar    1  UNL1        0.0355
     14 C         141.7423  139.2646  165.3413 C.ar    1  UNL1        0.0543
     15 C         142.6998  138.7675  166.3834 C.ar    1  UNL1        0.0164
     16 C         142.8215  139.4865  167.6942 C.ar    1  UNL1        0.0200
     17 C         141.9857  140.7027  167.9628 C.ar    1  UNL1        0.0787
     18 N         141.8894  141.6118  169.1521 N.ar    1  UNL1       -0.3129
     19 C         142.6727  141.4842  170.4250 C.3     1  UNL1        0.1316
     20 N         144.3821  142.1565  161.5136 N.pl3   1  UNL1       -0.2825
     21 H         145.1751  142.3516  160.9637 H       1  UNL1        0.1551
     22 C         143.6901  143.2641  162.2514 C.ar    1  UNL1        0.0518
     23 C         144.3156  143.8508  163.4820 C.ar    1  UNL1        0.0148
     24 C         143.6236  144.9584  164.2199 C.ar    1  UNL1        0.0026
     25 C         142.3061  145.4792  163.7271 C.ar    1  UNL1        0.0200
     26 C         141.6806  144.8924  162.4964 C.ar    1  UNL1        0.1229
     27 C         142.3726  143.7849  161.7586 C.ar    1  UNL1        0.0346
     28 S         140.3630  145.4133  162.0036 S.O2    1  UNL1        0.0572
     29 N         139.0455  145.9341  161.5108 N.3     1  UNL1       -0.2035
     30 O         139.8079  145.3247  163.3943 O.2     1  UNL1       -0.1532
     31 O         140.9182  145.5018  160.6129 O.2     1  UNL1       -0.1532
     32 H         138.3909  145.9954  162.2907 H       1  UNL1        0.1442
     33 H         138.6729  145.3011  160.8031 H       1  UNL1        0.1442
@<TRIPOS>BOND
     1     9    10    1
     2    10    11   ar
     3    11    12   ar
     4    12    13   ar
     5    13    14   ar
     6    14     7    1
     7     7     8    1
     8     7     1    1
     9     1     2   ar
    10     2     3   ar
    11     3     4   ar
    12     4     5   ar
    13     5    20    1
    14    20    22    1
    15    22    23   ar
    16    23    24   ar
    17    24    25   ar
    18    25    26   ar
    19    26    28    1
    20    28    29    1
    21    28    30    2
    22    28    31    2
    23    26    27   ar
    24     5     6   ar
    25    14    15   ar
    26    15    16   ar
    27    16    17   ar
    28    17    18   ar
    29    18    19    1
    30    18    10   ar
    31    17    12   ar
    32     6     1   ar
    33    27    22   ar
    34    20    21    1
    35    29    32    1
    36    29    33    1
@<TRIPOS>MOLECULE
*****
 33 36 0 0 0
SMALL
GASTEIGER

@<TRIPOS>ATOM
      1 C         139.4338  139.8260  167.4962 C.ar    1  UNL1        0.1399
      2 C         139.1134  140.0678  168.9416 C.ar    1  UNL1        0.0554
      3 C         140.0669  140.8431  169.8016 C.ar    1  UNL1        0.1047
      4 N         141.3407  141.3768  169.2163 N.ar    1  UNL1       -0.2119
      5 C         141.6611  141.1351  167.7710 C.ar    1  UNL1        0.2218
      6 N         140.7076  140.3597  166.9109 N.ar    1  UNL1       -0.1983
      7 N         138.4803  139.0506  166.6362 N.pl3   1  UNL1       -0.2705
      8 C         137.3821  138.2484  167.2689 C.3     1  UNL1        0.1187
      9 C         138.2913  141.5705  159.2040 C.3     1  UNL1        0.0718
     10 C         138.4318  140.8461  160.5100 C.ar    1  UNL1        0.1208
     11 N         138.0833  141.3920  161.8629 N.ar    1  UNL1       -0.2309
     12 C         138.3816  140.3320  162.8814 C.ar    1  UNL1        0.0996
     13 C         138.2369  140.3052  164.3742 C.ar    1  UNL1        0.0355
     14 C         138.6251  139.0774  165.1434 C.ar    1  UNL1        0.0543
     15 C         139.1581  137.8764  164.4199 C.ar    1  UNL1        0.0164
     16 C         139.3028  137.9032  162.9272 C.ar    1  UNL1        0.0200
     17 C         138.9146  139.1310  162.1579 C.ar    1  UNL1        0.0787
     18 N         138.9456  139.4487  160.6923 N.ar    1  UNL1       -0.3129
     19 C         139.4091  138.5303  159.6007 C.3     1  UNL1        0.1316
     20 N         142.9350  141.6687  167.1858 N.pl3   1  UNL1       -0.2825
     21 H         143.8024  141.3941  167.5618 H       1  UNL1        0.1551
     22 C         142.8872  142.6208  166.0277 C.ar    1  UNL1        0.0518
     23 C         144.1379  143.3136  165.5743 C.ar    1  UNL1        0.0148
     24 C         144.0902  144.2657  164.4161 C.ar    1  UNL1        0.0026
     25 C         142.7917  144.5249  163.7114 C.ar    1  UNL1        0.0200
     26 C         141.5409  143.8321  164.1648 C.ar    1  UNL1        0.1229
     27 C         141.5887  142.8800  165.3229 C.ar    1  UNL1        0.0346
     28 S         140.2424  144.0913  163.4601 S.O2    1  UNL1        0.0572
     29 N         138.9438  144.3505  162.7554 N.3     1  UNL1       -0.2035
     30 O         139.7154  144.7795  164.6843 O.2     1  UNL1       -0.1532
     31 O         140.7693  143.4031  162.2359 O.2     1  UNL1       -0.1532
     32 H         138.3117  144.8505  163.3805 H       1  UNL1        0.1442
     33 H         138.5214  143.4628  162.4835 H       1  UNL1        0.1442
@<TRIPOS>BOND
     1     9    10    1
     2    10    11   ar
     3    11    12   ar
     4    12    13   ar
     5    13    14   ar
     6    14     7    1
     7     7     8    1
     8     7     1    1
     9     1     2   ar
    10     2     3   ar
    11     3     4   ar
    12     4     5   ar
    13     5    20    1
    14    20    22    1
    15    22    23   ar
    16    23    24   ar
    17    24    25   ar
    18    25    26   ar
    19    26    28    1
    20    28    29    1
    21    28    30    2
    22    28    31    2
    23    26    27   ar
    24     5     6   ar
    25    14    15   ar
    26    15    16   ar
    27    16    17   ar
    28    17    18   ar
    29    18    19    1
    30    18    10   ar
    31    17    12   ar
    32     6     1   ar
    33    27    22   ar
    34    20    21    1
    35    29    32    1
    36    29    33    1
