@<TRIPOS>MOLECULE
*****
 41 45 0 0 0
SMALL
GASTEIGER

@<TRIPOS>ATOM
      1 C         141.5142  141.3978  164.0235 C.3     1  UNL1        0.0806
      2 C         142.3621  141.7423  162.8350 C.ar    1  UNL1        0.0374
      3 C         142.2443  140.9414  161.5722 C.ar    1  UNL1        0.0023
      4 C         143.0922  141.2859  160.3837 C.ar    1  UNL1        0.0181
      5 C         142.9744  140.4850  159.1210 C.ar    1  UNL1        0.0082
      6 C         143.8222  140.8295  157.9325 C.ar    1  UNL1        0.0347
      7 BR        143.7044  140.0285  156.6697 Br      1  UNL1       -0.0490
      8 C         144.7879  141.9749  158.0069 C.ar    1  UNL1        0.0082
      9 C         144.9057  142.7758  159.2696 C.ar    1  UNL1        0.0197
     10 C         144.0579  142.4313  160.4581 C.ar    1  UNL1        0.0844
     11 N         144.1757  143.2322  161.7209 N.ar    1  UNL1       -0.2119
     12 C         143.3278  142.8877  162.9093 C.ar    1  UNL1        0.2211
     13 O         143.4456  143.6886  164.1722 O.3     1  UNL1       -0.4563
     14 C         144.5496  143.3971  165.1449 C.3     1  UNL1        0.2542
     15 C         142.0766  140.5496  165.1255 C.ar    1  UNL1        0.0189
     16 C         142.6066  139.1798  164.8214 C.ar    1  UNL1       -0.0009
     17 C         143.1690  138.3315  165.9234 C.ar    1  UNL1       -0.0001
     18 C         143.2014  138.8532  167.3294 C.ar    1  UNL1        0.0031
     19 C         142.6713  140.2232  167.6334 C.ar    1  UNL1        0.0374
     20 C         142.5719  140.9997  168.9129 C.ar    1  UNL1        0.0437
     21 C         141.9480  142.3278  168.6017 C.ar    1  UNL1        0.1796
     22 O         141.6619  142.3721  167.1299 O.2     1  UNL1       -0.4507
     23 C         142.1090  141.0713  166.5314 C.ar    1  UNL1        0.1418
     24 C         140.1040  141.9016  164.1100 C.3     1  UNL1        0.1162
     25 O         140.6150  143.2971  164.3133 O.3     1  UNL1       -0.3820
     26 H         139.8653  143.9051  164.4098 H       1  UNL1        0.2107
     27 C         139.0362  138.5219  162.3246 C.ar    1  UNL1        0.2272
     28 C         139.5472  139.9175  162.5278 C.ar    1  UNL1        0.0559
     29 C         139.5930  140.5060  163.9068 C.ar    1  UNL1        0.0117
     30 C         139.1279  139.6989  165.0824 C.ar    1  UNL1        0.0559
     31 C         138.6169  138.3034  164.8792 C.ar    1  UNL1        0.2272
     32 N         138.5711  137.7149  163.5002 N.ar    1  UNL1       -0.1767
     33 C         139.7796  138.5618  159.8354 C.3     1  UNL1        0.2542
     34 O         138.9904  137.9334  160.9455 O.3     1  UNL1       -0.4561
     35 O         138.1518  137.4963  166.0549 O.3     1  UNL1       -0.4561
     36 C         137.4054  138.1616  167.1731 C.3     1  UNL1        0.2542
     37 C         138.6938  142.4053  164.1965 C.3     1  UNL1        0.0491
     38 C         138.0387  143.0116  162.9911 C.3     1  UNL1        0.0750
     39 N         138.8372  143.8705  162.0559 N.3     1  UNL1       -0.2702
     40 C         139.4151  143.2800  160.8040 C.3     1  UNL1        0.0897
     41 C         139.0578  145.3200  162.3725 C.3     1  UNL1        0.0897
@<TRIPOS>BOND
     1    33    34    1
     2    34    27    1
     3    27    28   ar
     4    28    29   ar
     5    29    24    1
     6    24    25    1
     7    24    37    1
     8    37    38    1
     9    38    39    1
    10    39    40    1
    11    39    41    1
    12    24     1    1
    13     1     2    1
    14     2     3   ar
    15     3     4   ar
    16     4     5   ar
    17     5     6   ar
    18     6     7    1
    19     6     8   ar
    20     8     9   ar
    21     9    10   ar
    22    10    11   ar
    23    11    12   ar
    24    12    13    1
    25    13    14    1
    26     1    15    1
    27    15    16   ar
    28    16    17   ar
    29    17    18   ar
    30    18    19   ar
    31    19    20   ar
    32    20    21   ar
    33    21    22   ar
    34    22    23   ar
    35    29    30   ar
    36    30    31   ar
    37    31    35    1
    38    35    36    1
    39    31    32   ar
    40    32    27   ar
    41    12     2   ar
    42    23    15   ar
    43    10     4   ar
    44    23    19   ar
    45    25    26    1
@<TRIPOS>MOLECULE
*****
 41 45 0 0 0
SMALL
GASTEIGER

@<TRIPOS>ATOM
      1 C         140.8286  141.6406  165.4789 C.3     1  UNL1        0.0806
      2 C         140.6651  142.5483  164.2959 C.ar    1  UNL1        0.0374
      3 C         141.5198  142.3550  163.0785 C.ar    1  UNL1        0.0023
      4 C         141.3563  143.2627  161.8955 C.ar    1  UNL1        0.0181
      5 C         142.2109  143.0694  160.6781 C.ar    1  UNL1        0.0082
      6 C         142.0474  143.9771  159.4952 C.ar    1  UNL1        0.0347
      7 BR        142.9021  143.7838  158.2776 Br      1  UNL1       -0.0490
      8 C         141.0293  145.0781  159.5297 C.ar    1  UNL1        0.0082
      9 C         140.1746  145.2714  160.7471 C.ar    1  UNL1        0.0197
     10 C         140.3381  144.3637  161.9300 C.ar    1  UNL1        0.0844
     11 N         139.4835  144.5570  163.1475 N.ar    1  UNL1       -0.2119
     12 C         139.6470  143.6493  164.3304 C.ar    1  UNL1        0.2211
     13 O         138.7923  143.8426  165.5480 O.3     1  UNL1       -0.4563
     14 C         138.3632  145.2220  165.9517 C.3     1  UNL1        0.2542
     15 C         140.0205  140.3805  165.5747 C.ar    1  UNL1        0.0189
     16 C         139.1271  140.1507  166.7574 C.ar    1  UNL1       -0.0009
     17 C         138.3189  138.8906  166.8533 C.ar    1  UNL1       -0.0001
     18 C         138.4043  137.8603  165.7664 C.ar    1  UNL1        0.0031
     19 C         139.2979  138.0902  164.5837 C.ar    1  UNL1        0.0374
     20 C         139.5856  137.2613  163.3671 C.ar    1  UNL1        0.0437
     21 C         140.5716  138.0091  162.5194 C.ar    1  UNL1        0.1796
     22 O         140.8932  139.3001  163.2120 O.2     1  UNL1       -0.4507
     23 C         140.1060  139.3502  164.4879 C.ar    1  UNL1        0.1418
     24 C         141.8002  141.9930  166.5660 C.3     1  UNL1        0.1162
     25 O         140.8232  142.9894  167.1162 O.3     1  UNL1       -0.3820
     26 H         141.2050  143.4190  167.8975 H       1  UNL1        0.2107
     27 C         144.6581  140.3834  164.3318 C.ar    1  UNL1        0.2272
     28 C         143.6811  141.3799  164.8819 C.ar    1  UNL1        0.0559
     29 C         142.7772  140.9965  166.0159 C.ar    1  UNL1        0.0117
     30 C         142.8502  139.6168  166.5998 C.ar    1  UNL1        0.0559
     31 C         143.8272  138.6204  166.0496 C.ar    1  UNL1        0.2272
     32 N         144.7311  139.0037  164.9157 N.ar    1  UNL1       -0.1767
     33 C         145.2556  141.9810  162.3720 C.3     1  UNL1        0.2542
     34 O         145.5620  140.7668  163.1978 O.3     1  UNL1       -0.4561
     35 O         143.9003  137.2406  166.6336 O.3     1  UNL1       -0.4561
     36 C         145.1241  136.8082  167.3854 C.3     1  UNL1        0.2542
     37 C         142.7718  142.3454  167.6532 C.3     1  UNL1        0.0491
     38 C         142.2854  142.5449  169.0580 C.3     1  UNL1        0.0750
     39 N         141.7082  141.3909  169.8229 N.3     1  UNL1       -0.2702
     40 C         140.2457  141.3678  170.1553 C.3     1  UNL1        0.0897
     41 C         142.5936  140.2599  170.2554 C.3     1  UNL1        0.0897
@<TRIPOS>BOND
     1    33    34    1
     2    34    27    1
     3    27    28   ar
     4    28    29   ar
     5    29    24    1
     6    24    25    1
     7    24    37    1
     8    37    38    1
     9    38    39    1
    10    39    40    1
    11    39    41    1
    12    24     1    1
    13     1     2    1
    14     2     3   ar
    15     3     4   ar
    16     4     5   ar
    17     5     6   ar
    18     6     7    1
    19     6     8   ar
    20     8     9   ar
    21     9    10   ar
    22    10    11   ar
    23    11    12   ar
    24    12    13    1
    25    13    14    1
    26     1    15    1
    27    15    16   ar
    28    16    17   ar
    29    17    18   ar
    30    18    19   ar
    31    19    20   ar
    32    20    21   ar
    33    21    22   ar
    34    22    23   ar
    35    29    30   ar
    36    30    31   ar
    37    31    35    1
    38    35    36    1
    39    31    32   ar
    40    32    27   ar
    41    12     2   ar
    42    23    15   ar
    43    10     4   ar
    44    23    19   ar
    45    25    26    1
@<TRIPOS>MOLECULE
*****
 41 45 0 0 0
SMALL
GASTEIGER

@<TRIPOS>ATOM
      1 C         141.4264  141.4359  164.0415 C.3     1  UNL1        0.0806
      2 C         142.2930  141.7673  162.8628 C.ar    1  UNL1        0.0374
      3 C         142.2068  140.9422  161.6131 C.ar    1  UNL1        0.0023
      4 C         143.0734  141.2735  160.4344 C.ar    1  UNL1        0.0181
      5 C         142.9873  140.4485  159.1847 C.ar    1  UNL1        0.0082
      6 C         143.8539  140.7798  158.0060 C.ar    1  UNL1        0.0347
      7 BR        143.7678  139.9548  156.7562 Br      1  UNL1       -0.0490
      8 C         144.8066  141.9363  158.0771 C.ar    1  UNL1        0.0082
      9 C         144.8927  142.7613  159.3268 C.ar    1  UNL1        0.0197
     10 C         144.0261  142.4300  160.5054 C.ar    1  UNL1        0.0844
     11 N         144.1122  143.2550  161.7552 N.ar    1  UNL1       -0.2119
     12 C         143.2457  142.9237  162.9339 C.ar    1  UNL1        0.2211
     13 O         143.3318  143.7488  164.1836 O.3     1  UNL1       -0.4563
     14 C         144.4664  143.5413  165.1426 C.3     1  UNL1        0.2542
     15 C         141.9823  140.6306  165.1783 C.ar    1  UNL1        0.0189
     16 C         142.5756  139.2775  164.9191 C.ar    1  UNL1       -0.0009
     17 C         143.1315  138.4721  166.0558 C.ar    1  UNL1       -0.0001
     18 C         143.0941  139.0197  167.4518 C.ar    1  UNL1        0.0031
     19 C         142.5007  140.3728  167.7110 C.ar    1  UNL1        0.0374
     20 C         142.3262  141.1675  168.9711 C.ar    1  UNL1        0.0437
     21 C         141.6624  142.4641  168.6131 C.ar    1  UNL1        0.1796
     22 O         141.4267  142.4707  167.1318 O.2     1  UNL1       -0.4507
     23 C         141.9448  141.1782  166.5742 C.ar    1  UNL1        0.1418
     24 C         140.0039  141.9101  164.0834 C.3     1  UNL1        0.1162
     25 O         140.4794  143.3203  164.2703 O.3     1  UNL1       -0.3820
     26 H         139.7147  143.9134  164.3361 H       1  UNL1        0.2107
     27 C         138.6023  138.2867  164.8938 C.ar    1  UNL1        0.2272
     28 C         139.0778  139.6970  165.0807 C.ar    1  UNL1        0.0559
     29 C         139.5283  140.4998  163.8964 C.ar    1  UNL1        0.0117
     30 C         139.5033  139.8923  162.5252 C.ar    1  UNL1        0.0559
     31 C         139.0278  138.4820  162.3383 C.ar    1  UNL1        0.2272
     32 N         138.5772  137.6792  163.5226 N.ar    1  UNL1       -0.1767
     33 C         137.3718  138.1421  167.1774 C.3     1  UNL1        0.2542
     34 O         138.1518  137.4839  166.0781 O.3     1  UNL1       -0.4561
     35 O         139.0027  137.8745  160.9670 O.3     1  UNL1       -0.4561
     36 C         139.8889  138.4222  159.8878 C.3     1  UNL1        0.2542
     37 C         138.5814  142.3842  164.1252 C.3     1  UNL1        0.0491
     38 C         138.1369  143.5026  163.2300 C.3     1  UNL1        0.0750
     39 N         138.6300  143.5717  161.8150 N.3     1  UNL1       -0.2702
     40 C         138.0855  142.6281  160.7840 C.3     1  UNL1        0.0897
     41 C         139.6676  144.5846  161.4310 C.3     1  UNL1        0.0897
@<TRIPOS>BOND
     1    33    34    1
     2    34    27    1
     3    27    28   ar
     4    28    29   ar
     5    29    24    1
     6    24    25    1
     7    24    37    1
     8    37    38    1
     9    38    39    1
    10    39    40    1
    11    39    41    1
    12    24     1    1
    13     1     2    1
    14     2     3   ar
    15     3     4   ar
    16     4     5   ar
    17     5     6   ar
    18     6     7    1
    19     6     8   ar
    20     8     9   ar
    21     9    10   ar
    22    10    11   ar
    23    11    12   ar
    24    12    13    1
    25    13    14    1
    26     1    15    1
    27    15    16   ar
    28    16    17   ar
    29    17    18   ar
    30    18    19   ar
    31    19    20   ar
    32    20    21   ar
    33    21    22   ar
    34    22    23   ar
    35    29    30   ar
    36    30    31   ar
    37    31    35    1
    38    35    36    1
    39    31    32   ar
    40    32    27   ar
    41    12     2   ar
    42    23    15   ar
    43    10     4   ar
    44    23    19   ar
    45    25    26    1
@<TRIPOS>MOLECULE
*****
 41 45 0 0 0
SMALL
GASTEIGER

@<TRIPOS>ATOM
      1 C         142.1267  141.0073  163.3669 C.3     1  UNL1        0.0806
      2 C         142.4067  141.3682  164.7957 C.ar    1  UNL1        0.0374
      3 C         141.6147  140.7316  165.8991 C.ar    1  UNL1        0.0023
      4 C         141.8947  141.0925  167.3279 C.ar    1  UNL1        0.0181
      5 C         141.1027  140.4558  168.4313 C.ar    1  UNL1        0.0082
      6 C         141.3827  140.8167  169.8600 C.ar    1  UNL1        0.0347
      7 BR        140.5908  140.1800  170.9635 Br      1  UNL1       -0.0490
      8 C         142.4546  141.8143  170.1854 C.ar    1  UNL1        0.0082
      9 C         143.2465  142.4510  169.0820 C.ar    1  UNL1        0.0197
     10 C         142.9666  142.0901  167.6533 C.ar    1  UNL1        0.0844
     11 N         143.7585  142.7267  166.5499 N.ar    1  UNL1       -0.2119
     12 C         143.4786  142.3658  165.1211 C.ar    1  UNL1        0.2211
     13 O         144.2705  143.0025  164.0177 O.3     1  UNL1       -0.4563
     14 C         143.9961  144.4228  163.6207 C.3     1  UNL1        0.2542
     15 C         141.3640  141.9552  162.4896 C.ar    1  UNL1        0.0189
     16 C         142.0076  142.5198  161.2579 C.ar    1  UNL1       -0.0009
     17 C         141.2449  143.4677  160.3805 C.ar    1  UNL1       -0.0001
     18 C         139.8387  143.8509  160.7347 C.ar    1  UNL1        0.0031
     19 C         139.1951  143.2863  161.9664 C.ar    1  UNL1        0.0374
     20 C         137.8338  143.4796  162.5660 C.ar    1  UNL1        0.0437
     21 C         137.7552  142.6512  163.8141 C.ar    1  UNL1        0.1796
     22 O         139.0679  141.9459  163.9857 O.2     1  UNL1       -0.4507
     23 C         139.9578  142.3384  162.8438 C.ar    1  UNL1        0.1418
     24 C         142.6095  139.6986  162.8156 C.3     1  UNL1        0.1162
     25 O         144.0200  140.2084  162.8404 O.3     1  UNL1       -0.3820
     26 H         144.6184  139.5204  162.5096 H       1  UNL1        0.2107
     27 C         138.9734  138.7887  161.5115 C.ar    1  UNL1        0.2272
     28 C         140.3839  139.2986  161.5364 C.ar    1  UNL1        0.0559
     29 C         141.1991  139.1887  162.7907 C.ar    1  UNL1        0.0117
     30 C         140.6038  138.5690  164.0201 C.ar    1  UNL1        0.0559
     31 C         139.1933  138.0592  163.9953 C.ar    1  UNL1        0.2272
     32 N         138.3781  138.1690  162.7410 N.ar    1  UNL1       -0.1767
     33 C         137.9972  140.2280  159.5814 C.3     1  UNL1        0.2542
     34 O         138.1582  138.8986  160.2572 O.3     1  UNL1       -0.4561
     35 O         138.5981  137.4394  165.2248 O.3     1  UNL1       -0.4561
     36 C         138.1068  138.3119  166.3417 C.3     1  UNL1        0.2542
     37 C         143.0924  138.3898  162.2642 C.3     1  UNL1        0.0491
     38 C         144.0354  138.3694  161.0979 C.3     1  UNL1        0.0750
     39 N         143.5561  138.7846  159.7385 N.3     1  UNL1       -0.2702
     40 C         143.8901  140.1479  159.2096 C.3     1  UNL1        0.0897
     41 C         142.7428  137.8366  158.9081 C.3     1  UNL1        0.0897
@<TRIPOS>BOND
     1    33    34    1
     2    34    27    1
     3    27    28   ar
     4    28    29   ar
     5    29    24    1
     6    24    25    1
     7    24    37    1
     8    37    38    1
     9    38    39    1
    10    39    40    1
    11    39    41    1
    12    24     1    1
    13     1     2    1
    14     2     3   ar
    15     3     4   ar
    16     4     5   ar
    17     5     6   ar
    18     6     7    1
    19     6     8   ar
    20     8     9   ar
    21     9    10   ar
    22    10    11   ar
    23    11    12   ar
    24    12    13    1
    25    13    14    1
    26     1    15    1
    27    15    16   ar
    28    16    17   ar
    29    17    18   ar
    30    18    19   ar
    31    19    20   ar
    32    20    21   ar
    33    21    22   ar
    34    22    23   ar
    35    29    30   ar
    36    30    31   ar
    37    31    35    1
    38    35    36    1
    39    31    32   ar
    40    32    27   ar
    41    12     2   ar
    42    23    15   ar
    43    10     4   ar
    44    23    19   ar
    45    25    26    1
@<TRIPOS>MOLECULE
*****
 41 45 0 0 0
SMALL
GASTEIGER

@<TRIPOS>ATOM
      1 C         142.1429  141.0427  163.3799 C.3     1  UNL1        0.0806
      2 C         142.4191  141.3928  164.8122 C.ar    1  UNL1        0.0374
      3 C         141.6264  140.7454  165.9087 C.ar    1  UNL1        0.0023
      4 C         141.9026  141.0955  167.3410 C.ar    1  UNL1        0.0181
      5 C         141.1099  140.4481  168.4376 C.ar    1  UNL1        0.0082
      6 C         141.3861  140.7982  169.8697 C.ar    1  UNL1        0.0347
      7 BR        140.5934  140.1508  170.9664 Br      1  UNL1       -0.0490
      8 C         142.4549  141.7957  170.2053 C.ar    1  UNL1        0.0082
      9 C         143.2476  142.4431  169.1087 C.ar    1  UNL1        0.0197
     10 C         142.9714  142.0930  167.6766 C.ar    1  UNL1        0.0844
     11 N         143.7641  142.7404  166.5799 N.ar    1  UNL1       -0.2119
     12 C         143.4879  142.3903  165.1478 C.ar    1  UNL1        0.2211
     13 O         144.2806  143.0378  164.0511 O.3     1  UNL1       -0.4563
     14 C         144.0020  144.4598  163.6634 C.3     1  UNL1        0.2542
     15 C         141.3754  141.9935  162.5100 C.ar    1  UNL1        0.0189
     16 C         142.0160  142.5710  161.2828 C.ar    1  UNL1       -0.0009
     17 C         141.2484  143.5218  160.4128 C.ar    1  UNL1       -0.0001
     18 C         139.8402  143.8952  160.7701 C.ar    1  UNL1        0.0031
     19 C         139.1996  143.3177  161.9974 C.ar    1  UNL1        0.0374
     20 C         137.8375  143.4994  162.5986 C.ar    1  UNL1        0.0437
     21 C         137.7632  142.6609  163.8402 C.ar    1  UNL1        0.1796
     22 O         139.0794  141.9610  164.0062 O.2     1  UNL1       -0.4507
     23 C         139.9672  142.3669  162.8673 C.ar    1  UNL1        0.1418
     24 C         142.6344  139.7418  162.8177 C.3     1  UNL1        0.1162
     25 O         144.0433  140.2545  162.8630 O.3     1  UNL1       -0.3820
     26 H         144.6467  139.5719  162.5299 H       1  UNL1        0.2107
     27 C         139.1925  138.1285  163.9578 C.ar    1  UNL1        0.2272
     28 C         140.6014  138.6412  164.0031 C.ar    1  UNL1        0.0559
     29 C         141.2255  139.2291  162.7724 C.ar    1  UNL1        0.0117
     30 C         140.4406  139.3044  161.4964 C.ar    1  UNL1        0.0559
     31 C         139.0317  138.7917  161.4511 C.ar    1  UNL1        0.2272
     32 N         138.4076  138.2037  162.6818 N.ar    1  UNL1       -0.1767
     33 C         138.1297  138.4369  166.3085 C.3     1  UNL1        0.2542
     34 O         138.5684  137.5405  165.1887 O.3     1  UNL1       -0.4561
     35 O         138.2468  138.8670  160.1749 O.3     1  UNL1       -0.4561
     36 C         137.9913  140.1964  159.5290 C.3     1  UNL1        0.2542
     37 C         143.1259  138.4409  162.2554 C.3     1  UNL1        0.0491
     38 C         144.0680  138.4365  161.0882 C.3     1  UNL1        0.0750
     39 N         143.5613  138.7610  159.7142 N.3     1  UNL1       -0.2702
     40 C         142.7791  137.7398  158.9427 C.3     1  UNL1        0.0897
     41 C         143.8369  140.1067  159.1116 C.3     1  UNL1        0.0897
@<TRIPOS>BOND
     1    33    34    1
     2    34    27    1
     3    27    28   ar
     4    28    29   ar
     5    29    24    1
     6    24    25    1
     7    24    37    1
     8    37    38    1
     9    38    39    1
    10    39    40    1
    11    39    41    1
    12    24     1    1
    13     1     2    1
    14     2     3   ar
    15     3     4   ar
    16     4     5   ar
    17     5     6   ar
    18     6     7    1
    19     6     8   ar
    20     8     9   ar
    21     9    10   ar
    22    10    11   ar
    23    11    12   ar
    24    12    13    1
    25    13    14    1
    26     1    15    1
    27    15    16   ar
    28    16    17   ar
    29    17    18   ar
    30    18    19   ar
    31    19    20   ar
    32    20    21   ar
    33    21    22   ar
    34    22    23   ar
    35    29    30   ar
    36    30    31   ar
    37    31    35    1
    38    35    36    1
    39    31    32   ar
    40    32    27   ar
    41    12     2   ar
    42    23    15   ar
    43    10     4   ar
    44    23    19   ar
    45    25    26    1
@<TRIPOS>MOLECULE
*****
 41 45 0 0 0
SMALL
GASTEIGER

@<TRIPOS>ATOM
      1 C         139.3928  140.7543  164.5222 C.3     1  UNL1        0.0806
      2 C         139.6141  140.6915  166.0046 C.ar    1  UNL1        0.0374
      3 C         140.6130  141.6034  166.6530 C.ar    1  UNL1        0.0023
      4 C         140.8342  141.5406  168.1354 C.ar    1  UNL1        0.0181
      5 C         141.8331  142.4526  168.7838 C.ar    1  UNL1        0.0082
      6 C         142.0543  142.3898  170.2661 C.ar    1  UNL1        0.0347
      7 BR        143.0533  143.3017  170.9146 Br      1  UNL1       -0.0490
      8 C         141.2767  141.4151  171.0998 C.ar    1  UNL1        0.0082
      9 C         140.2778  140.5031  170.4513 C.ar    1  UNL1        0.0197
     10 C         140.0566  140.5659  168.9691 C.ar    1  UNL1        0.0844
     11 N         139.0576  139.6540  168.3205 N.ar    1  UNL1       -0.2119
     12 C         138.8364  139.7168  166.8383 C.ar    1  UNL1        0.2211
     13 O         137.8375  138.8048  166.1897 O.3     1  UNL1       -0.4563
     14 C         137.9064  137.3256  166.4289 C.3     1  UNL1        0.2542
     15 C         139.2413  142.0826  163.8421 C.ar    1  UNL1        0.0189
     16 C         137.8772  142.5837  163.4708 C.ar    1  UNL1       -0.0009
     17 C         137.7256  143.9121  162.7907 C.ar    1  UNL1       -0.0001
     18 C         138.9383  144.7392  162.4819 C.ar    1  UNL1        0.0031
     19 C         140.3025  144.2380  162.8532 C.ar    1  UNL1        0.0374
     20 C         141.6705  144.8275  162.6773 C.ar    1  UNL1        0.0437
     21 C         142.6676  143.8634  163.2488 C.ar    1  UNL1        0.1796
     22 O         141.9157  142.6782  163.7778 O.2     1  UNL1       -0.4507
     23 C         140.4540  142.9097  163.5333 C.ar    1  UNL1        0.1418
     24 C         139.3231  139.4887  163.7201 C.3     1  UNL1        0.1162
     25 O         137.8328  139.6303  163.6261 O.3     1  UNL1       -0.3820
     26 H         137.4690  138.8893  163.1168 H       1  UNL1        0.2107
     27 C         143.1668  139.5654  162.7353 C.ar    1  UNL1        0.2272
     28 C         141.6765  139.7070  162.6413 C.ar    1  UNL1        0.0559
     29 C         140.8135  139.3470  163.8141 C.ar    1  UNL1        0.0117
     30 C         141.4407  138.8452  165.0808 C.ar    1  UNL1        0.0559
     31 C         142.9311  138.7036  165.1748 C.ar    1  UNL1        0.2272
     32 N         143.7941  139.0636  164.0020 N.ar    1  UNL1       -0.1767
     33 C         143.5944  139.5667  160.1726 C.3     1  UNL1        0.2542
     34 O         144.0299  139.9255  161.5624 O.3     1  UNL1       -0.4561
     35 O         143.5584  138.2018  166.4416 O.3     1  UNL1       -0.4561
     36 C         143.1273  138.7616  167.7648 C.3     1  UNL1        0.2542
     37 C         139.2534  138.2231  162.9180 C.3     1  UNL1        0.0491
     38 C         138.3251  138.1297  161.7435 C.3     1  UNL1        0.0750
     39 N         138.5893  138.9443  160.5120 N.3     1  UNL1       -0.2702
     40 C         139.7494  138.6058  159.6235 C.3     1  UNL1        0.0897
     41 C         137.6934  140.0974  160.1691 C.3     1  UNL1        0.0897
@<TRIPOS>BOND
     1    33    34    1
     2    34    27    1
     3    27    28   ar
     4    28    29   ar
     5    29    24    1
     6    24    25    1
     7    24    37    1
     8    37    38    1
     9    38    39    1
    10    39    40    1
    11    39    41    1
    12    24     1    1
    13     1     2    1
    14     2     3   ar
    15     3     4   ar
    16     4     5   ar
    17     5     6   ar
    18     6     7    1
    19     6     8   ar
    20     8     9   ar
    21     9    10   ar
    22    10    11   ar
    23    11    12   ar
    24    12    13    1
    25    13    14    1
    26     1    15    1
    27    15    16   ar
    28    16    17   ar
    29    17    18   ar
    30    18    19   ar
    31    19    20   ar
    32    20    21   ar
    33    21    22   ar
    34    22    23   ar
    35    29    30   ar
    36    30    31   ar
    37    31    35    1
    38    35    36    1
    39    31    32   ar
    40    32    27   ar
    41    12     2   ar
    42    23    15   ar
    43    10     4   ar
    44    23    19   ar
    45    25    26    1
@<TRIPOS>MOLECULE
*****
 41 45 0 0 0
SMALL
GASTEIGER

@<TRIPOS>ATOM
      1 C         141.6192  141.5656  163.6526 C.3     1  UNL1        0.0806
      2 C         142.0766  141.7937  165.0628 C.ar    1  UNL1        0.0374
      3 C         141.3396  141.1558  166.2029 C.ar    1  UNL1        0.0023
      4 C         141.7971  141.3840  167.6131 C.ar    1  UNL1        0.0181
      5 C         141.0600  140.7461  168.7532 C.ar    1  UNL1        0.0082
      6 C         141.5175  140.9742  170.1633 C.ar    1  UNL1        0.0347
      7 BR        140.7804  140.3363  171.3035 Br      1  UNL1       -0.0490
      8 C         142.7121  141.8403  170.4334 C.ar    1  UNL1        0.0082
      9 C         143.4491  142.4782  169.2934 C.ar    1  UNL1        0.0197
     10 C         142.9916  142.2500  167.8832 C.ar    1  UNL1        0.0844
     11 N         143.7287  142.8880  166.7431 N.ar    1  UNL1       -0.2119
     12 C         143.2712  142.6598  165.3329 C.ar    1  UNL1        0.2211
     13 O         144.0083  143.2977  164.1928 O.3     1  UNL1       -0.4563
     14 C         143.8670  144.7692  163.9380 C.3     1  UNL1        0.2542
     15 C         142.4810  140.7903  162.7007 C.ar    1  UNL1        0.0189
     16 C         142.9082  139.3938  163.0431 C.ar    1  UNL1       -0.0009
     17 C         143.7700  138.6184  162.0912 C.ar    1  UNL1       -0.0001
     18 C         144.2046  139.2395  160.7969 C.ar    1  UNL1        0.0031
     19 C         143.7773  140.6361  160.4544 C.ar    1  UNL1        0.0374
     20 C         144.0477  141.5043  159.2615 C.ar    1  UNL1        0.0437
     21 C         143.3529  142.8163  159.4762 C.ar    1  UNL1        0.1796
     22 O         142.6532  142.7589  160.8017 O.2     1  UNL1       -0.4507
     23 C         142.9155  141.4114  161.4063 C.ar    1  UNL1        0.1418
     24 C         140.2999  142.1128  163.1943 C.3     1  UNL1        0.1162
     25 O         140.8435  143.5072  163.2942 O.3     1  UNL1       -0.3820
     26 H         140.1564  144.1414  163.0363 H       1  UNL1        0.2107
     27 C         139.0942  138.6592  161.6551 C.ar    1  UNL1        0.2272
     28 C         139.6379  140.0536  161.7550 C.ar    1  UNL1        0.0559
     29 C         139.7562  140.7183  163.0944 C.ar    1  UNL1        0.0117
     30 C         139.3308  139.9886  164.3339 C.ar    1  UNL1        0.0559
     31 C         138.7871  138.5942  164.2340 C.ar    1  UNL1        0.2272
     32 N         138.6689  137.9295  162.8946 N.ar    1  UNL1       -0.1767
     33 C         139.7093  138.5546  159.1330 C.3     1  UNL1        0.2542
     34 O         138.9760  137.9945  160.3155 O.3     1  UNL1       -0.4561
     35 O         138.3617  137.8644  165.4737 O.3     1  UNL1       -0.4561
     36 C         137.8947  138.6337  166.6738 C.3     1  UNL1        0.2542
     37 C         138.9806  142.6600  162.7360 C.3     1  UNL1        0.0491
     38 C         138.9174  143.9976  162.0603 C.3     1  UNL1        0.0750
     39 N         139.5048  144.1750  160.6916 N.3     1  UNL1       -0.2702
     40 C         139.3155  143.1118  159.6506 C.3     1  UNL1        0.0897
     41 C         140.2817  145.4156  160.3638 C.3     1  UNL1        0.0897
@<TRIPOS>BOND
     1    33    34    1
     2    34    27    1
     3    27    28   ar
     4    28    29   ar
     5    29    24    1
     6    24    25    1
     7    24    37    1
     8    37    38    1
     9    38    39    1
    10    39    40    1
    11    39    41    1
    12    24     1    1
    13     1     2    1
    14     2     3   ar
    15     3     4   ar
    16     4     5   ar
    17     5     6   ar
    18     6     7    1
    19     6     8   ar
    20     8     9   ar
    21     9    10   ar
    22    10    11   ar
    23    11    12   ar
    24    12    13    1
    25    13    14    1
    26     1    15    1
    27    15    16   ar
    28    16    17   ar
    29    17    18   ar
    30    18    19   ar
    31    19    20   ar
    32    20    21   ar
    33    21    22   ar
    34    22    23   ar
    35    29    30   ar
    36    30    31   ar
    37    31    35    1
    38    35    36    1
    39    31    32   ar
    40    32    27   ar
    41    12     2   ar
    42    23    15   ar
    43    10     4   ar
    44    23    19   ar
    45    25    26    1
@<TRIPOS>MOLECULE
*****
 41 45 0 0 0
SMALL
GASTEIGER

@<TRIPOS>ATOM
      1 C         141.6180  141.5608  163.6562 C.3     1  UNL1        0.0806
      2 C         142.0746  141.7879  165.0669 C.ar    1  UNL1        0.0374
      3 C         141.3393  141.1458  166.2057 C.ar    1  UNL1        0.0023
      4 C         141.7959  141.3729  167.6164 C.ar    1  UNL1        0.0181
      5 C         141.0606  140.7308  168.7553 C.ar    1  UNL1        0.0082
      6 C         141.5172  140.9579  170.1659 C.ar    1  UNL1        0.0347
      7 BR        140.7818  140.3158  171.3048 Br      1  UNL1       -0.0490
      8 C         142.7091  141.8271  170.4377 C.ar    1  UNL1        0.0082
      9 C         143.4444  142.4691  169.2988 C.ar    1  UNL1        0.0197
     10 C         142.9878  142.2421  167.8882 C.ar    1  UNL1        0.0844
     11 N         143.7231  142.8841  166.7493 N.ar    1  UNL1       -0.2119
     12 C         143.2665  142.6571  165.3387 C.ar    1  UNL1        0.2211
     13 O         144.0018  143.2991  164.1997 O.3     1  UNL1       -0.4563
     14 C         143.8790  144.7756  163.9650 C.3     1  UNL1        0.2542
     15 C         142.4797  140.7849  162.7047 C.ar    1  UNL1        0.0189
     16 C         142.9085  139.3894  163.0488 C.ar    1  UNL1       -0.0009
     17 C         143.7703  138.6134  162.0973 C.ar    1  UNL1       -0.0001
     18 C         144.2031  139.2330  160.8017 C.ar    1  UNL1        0.0031
     19 C         143.7742  140.6287  160.4575 C.ar    1  UNL1        0.0374
     20 C         144.0427  141.4954  159.2631 C.ar    1  UNL1        0.0437
     21 C         143.3469  142.8070  159.4764 C.ar    1  UNL1        0.1796
     22 O         142.6484  142.7509  160.8027 O.2     1  UNL1       -0.4507
     23 C         142.9125  141.4046  161.4090 C.ar    1  UNL1        0.1418
     24 C         140.2997  142.1097  163.1971 C.3     1  UNL1        0.1162
     25 O         140.8450  143.5034  163.2975 O.3     1  UNL1       -0.3820
     26 H         140.1588  144.1385  163.0392 H       1  UNL1        0.2107
     27 C         138.7799  138.5936  164.2352 C.ar    1  UNL1        0.2272
     28 C         139.3252  139.9874  164.3356 C.ar    1  UNL1        0.0559
     29 C         139.7544  140.7159  163.0966 C.ar    1  UNL1        0.0117
     30 C         139.6382  140.0507  161.7573 C.ar    1  UNL1        0.0559
     31 C         139.0929  138.6570  161.6569 C.ar    1  UNL1        0.2272
     32 N         138.6637  137.9284  162.8958 N.ar    1  UNL1       -0.1767
     33 C         137.9025  138.6361  166.6803 C.3     1  UNL1        0.2542
     34 O         138.3508  137.8651  165.4742 O.3     1  UNL1       -0.4561
     35 O         138.9767  137.9917  160.3174 O.3     1  UNL1       -0.4561
     36 C         139.7149  138.5492  159.1366 C.3     1  UNL1        0.2542
     37 C         138.9814  142.6586  162.7379 C.3     1  UNL1        0.0491
     38 C         138.9196  143.9987  162.0670 C.3     1  UNL1        0.0750
     39 N         139.5038  144.1793  160.6973 N.3     1  UNL1       -0.2702
     40 C         139.3114  143.1188  159.6540 C.3     1  UNL1        0.0897
     41 C         140.2803  145.4204  160.3708 C.3     1  UNL1        0.0897
@<TRIPOS>BOND
     1    33    34    1
     2    34    27    1
     3    27    28   ar
     4    28    29   ar
     5    29    24    1
     6    24    25    1
     7    24    37    1
     8    37    38    1
     9    38    39    1
    10    39    40    1
    11    39    41    1
    12    24     1    1
    13     1     2    1
    14     2     3   ar
    15     3     4   ar
    16     4     5   ar
    17     5     6   ar
    18     6     7    1
    19     6     8   ar
    20     8     9   ar
    21     9    10   ar
    22    10    11   ar
    23    11    12   ar
    24    12    13    1
    25    13    14    1
    26     1    15    1
    27    15    16   ar
    28    16    17   ar
    29    17    18   ar
    30    18    19   ar
    31    19    20   ar
    32    20    21   ar
    33    21    22   ar
    34    22    23   ar
    35    29    30   ar
    36    30    31   ar
    37    31    35    1
    38    35    36    1
    39    31    32   ar
    40    32    27   ar
    41    12     2   ar
    42    23    15   ar
    43    10     4   ar
    44    23    19   ar
    45    25    26    1
@<TRIPOS>MOLECULE
*****
 41 45 0 0 0
SMALL
GASTEIGER

@<TRIPOS>ATOM
      1 C         141.2708  140.9613  162.6272 C.3     1  UNL1        0.0806
      2 C         141.3075  140.6898  164.1020 C.ar    1  UNL1        0.0374
      3 C         140.9561  141.7771  165.0737 C.ar    1  UNL1        0.0023
      4 C         140.9928  141.5057  166.5486 C.ar    1  UNL1        0.0181
      5 C         140.6414  142.5930  167.5203 C.ar    1  UNL1        0.0082
      6 C         140.6780  142.3214  168.9950 C.ar    1  UNL1        0.0347
      7 BR        140.3266  143.4088  169.9668 Br      1  UNL1       -0.0490
      8 C         141.0661  140.9626  169.4980 C.ar    1  UNL1        0.0082
      9 C         141.4175  139.8753  168.5263 C.ar    1  UNL1        0.0197
     10 C         141.3808  140.1468  167.0516 C.ar    1  UNL1        0.0844
     11 N         141.7322  139.0595  166.0798 N.ar    1  UNL1       -0.2119
     12 C         141.6956  139.3310  164.6051 C.ar    1  UNL1        0.2211
     13 O         142.0470  138.2437  163.6333 O.3     1  UNL1       -0.4563
     14 C         141.0411  137.1822  163.2996 C.3     1  UNL1        0.2542
     15 C         140.1057  140.4925  161.8071 C.ar    1  UNL1        0.0189
     16 C         138.7061  140.8164  162.2386 C.ar    1  UNL1       -0.0009
     17 C         137.5409  140.3476  161.4184 C.ar    1  UNL1       -0.0001
     18 C         137.7754  139.5549  160.1667 C.ar    1  UNL1        0.0031
     19 C         139.1751  139.2311  159.7352 C.ar    1  UNL1        0.0374
     20 C         139.7122  138.4731  158.5576 C.ar    1  UNL1        0.0437
     21 C         141.2094  138.4735  158.6499 C.ar    1  UNL1        0.1796
     22 O         141.5975  139.2317  159.8846 O.2     1  UNL1       -0.4507
     23 C         140.3402  139.6999  160.5554 C.ar    1  UNL1        0.1418
     24 C         142.3993  141.7016  161.9726 C.3     1  UNL1        0.1162
     25 O         143.3171  140.5482  162.2505 O.3     1  UNL1       -0.3820
     26 H         144.2030  140.7509  161.9113 H       1  UNL1        0.2107
     27 C         140.2759  144.4139  160.0016 C.ar    1  UNL1        0.2272
     28 C         141.1938  143.2605  160.2795 C.ar    1  UNL1        0.0559
     29 C         141.4815  142.8550  161.6947 C.ar    1  UNL1        0.0117
     30 C         140.8513  143.6030  162.8320 C.ar    1  UNL1        0.0559
     31 C         139.9335  144.7564  162.5541 C.ar    1  UNL1        0.2272
     32 N         139.6458  145.1618  161.1389 N.ar    1  UNL1       -0.1767
     33 C         140.9714  145.6667  157.8344 C.3     1  UNL1        0.2542
     34 O         139.9883  144.8194  158.5864 O.3     1  UNL1       -0.4561
     35 O         139.3033  145.5043  163.6915 O.3     1  UNL1       -0.4561
     36 C         138.9061  144.7746  164.9404 C.3     1  UNL1        0.2542
     37 C         143.5278  142.4419  161.3180 C.3     1  UNL1        0.0491
     38 C         144.4704  143.2601  162.1498 C.3     1  UNL1        0.0750
     39 N         144.8617  142.7915  163.5200 N.3     1  UNL1       -0.2702
     40 C         145.8730  141.6949  163.6772 C.3     1  UNL1        0.0897
     41 C         144.2416  143.4193  164.7329 C.3     1  UNL1        0.0897
@<TRIPOS>BOND
     1    33    34    1
     2    34    27    1
     3    27    28   ar
     4    28    29   ar
     5    29    24    1
     6    24    25    1
     7    24    37    1
     8    37    38    1
     9    38    39    1
    10    39    40    1
    11    39    41    1
    12    24     1    1
    13     1     2    1
    14     2     3   ar
    15     3     4   ar
    16     4     5   ar
    17     5     6   ar
    18     6     7    1
    19     6     8   ar
    20     8     9   ar
    21     9    10   ar
    22    10    11   ar
    23    11    12   ar
    24    12    13    1
    25    13    14    1
    26     1    15    1
    27    15    16   ar
    28    16    17   ar
    29    17    18   ar
    30    18    19   ar
    31    19    20   ar
    32    20    21   ar
    33    21    22   ar
    34    22    23   ar
    35    29    30   ar
    36    30    31   ar
    37    31    35    1
    38    35    36    1
    39    31    32   ar
    40    32    27   ar
    41    12     2   ar
    42    23    15   ar
    43    10     4   ar
    44    23    19   ar
    45    25    26    1
