@<TRIPOS>MOLECULE
*****
 28 30 0 0 0
SMALL
GASTEIGER

@<TRIPOS>ATOM
      1 C         140.4001  140.0400  166.1035 C.ar    1  UNL1        0.0084
      2 C         141.6723  139.7578  165.3608 C.ar    1  UNL1        0.0212
      3 C         142.9316  139.4561  166.1178 C.ar    1  UNL1        0.1523
      4 N         142.9186  139.4365  167.6176 N.ar    1  UNL1       -0.2414
      5 C         141.6463  139.7188  168.3604 C.ar    1  UNL1        0.0848
      6 C         141.6333  139.6993  169.8602 C.ar    1  UNL1        0.0890
      7 C         140.3611  139.9815  170.6029 C.ar    1  UNL1        0.0054
      8 C         139.1018  140.2833  169.8458 C.ar    1  UNL1        0.0000
      9 C         139.1148  140.3028  168.3460 C.ar    1  UNL1        0.0012
     10 C         140.3870  140.0205  167.6033 C.ar    1  UNL1        0.0160
     11 C         144.2039  139.1738  165.3751 C.3     1  UNL1        0.4348
     12 F         145.4762  138.8915  164.6324 F       1  UNL1       -0.1644
     13 F         143.9165  140.3175  164.4481 F       1  UNL1       -0.1644
     14 F         144.4913  138.0301  166.3020 F       1  UNL1       -0.1644
     15 C         142.8926  139.3975  170.6173 C.3     1  UNL1        0.4200
     16 F         144.1519  139.0958  171.3744 F       1  UNL1       -0.1658
     17 F         143.1265  140.8661  170.8136 F       1  UNL1       -0.1658
     18 F         142.6587  137.9289  170.4210 F       1  UNL1       -0.1658
     19 O         138.1432  139.2523  165.0855 O.3     1  UNL1       -0.3787
     20 C         139.1408  140.3418  165.3464 C.3     1  UNL1        0.1470
     21 H         138.4636  138.4216  165.4704 H       1  UNL1        0.2108
     22 C         138.8791  141.7329  164.8502 C.3     1  UNL1        0.0855
     23 C         139.5381  142.9036  165.5174 C.3     1  UNL1        0.0186
     24 C         139.2763  144.2948  165.0212 C.3     1  UNL1        0.0029
     25 C         138.3556  144.5152  163.8577 C.3     1  UNL1        0.0171
     26 C         137.6966  143.3445  163.1905 C.3     1  UNL1        0.0686
     27 N         137.9583  141.9534  163.6867 N.3     1  UNL1       -0.2963
     28 H         138.3446  141.4287  162.9019 H       1  UNL1        0.1233
@<TRIPOS>BOND
     1    19    20    1
     2    20     1    1
     3     1     2   ar
     4     2     3   ar
     5     3    11    1
     6    11    12    1
     7    11    13    1
     8    11    14    1
     9     3     4   ar
    10     4     5   ar
    11     5     6   ar
    12     6    15    1
    13    15    16    1
    14    15    17    1
    15    15    18    1
    16     6     7   ar
    17     7     8   ar
    18     8     9   ar
    19     9    10   ar
    20    20    22    1
    21    22    23    1
    22    23    24    1
    23    24    25    1
    24    25    26    1
    25    26    27    1
    26    10     1   ar
    27    27    22    1
    28    10     5   ar
    29    19    21    1
    30    27    28    1
@<TRIPOS>MOLECULE
*****
 28 30 0 0 0
SMALL
GASTEIGER

@<TRIPOS>ATOM
      1 C         139.5050  142.4555  163.9950 C.ar    1  UNL1        0.0084
      2 C         138.8458  141.9571  162.7432 C.ar    1  UNL1        0.0212
      3 C         138.1794  140.6133  162.7303 C.ar    1  UNL1        0.1523
      4 N         138.1723  139.7679  163.9693 N.ar    1  UNL1       -0.2414
      5 C         138.8315  140.2662  165.2212 C.ar    1  UNL1        0.0848
      6 C         138.8243  139.4207  166.4602 C.ar    1  UNL1        0.0890
      7 C         139.4835  139.9191  167.7120 C.ar    1  UNL1        0.0054
      8 C         140.1499  141.2629  167.7248 C.ar    1  UNL1        0.0000
      9 C         140.1570  142.1083  166.4859 C.ar    1  UNL1        0.0012
     10 C         139.4978  141.6100  165.2340 C.ar    1  UNL1        0.0160
     11 C         137.5202  140.1150  161.4784 C.3     1  UNL1        0.4348
     12 F         136.8611  139.6166  160.2266 F       1  UNL1       -0.1644
     13 F         137.6595  141.4759  160.8633 F       1  UNL1       -0.1644
     14 F         137.3809  138.7541  162.0936 F       1  UNL1       -0.1644
     15 C         138.1580  138.0769  166.4473 C.3     1  UNL1        0.4200
     16 F         137.4917  136.7331  166.4345 F       1  UNL1       -0.1658
     17 F         137.0760  138.6049  167.3420 F       1  UNL1       -0.1658
     18 F         139.2400  137.5489  165.5526 F       1  UNL1       -0.1658
     19 O         139.4173  145.0058  164.4833 O.3     1  UNL1       -0.3787
     20 C         140.1713  143.7993  164.0078 C.3     1  UNL1        0.1470
     21 H         138.5203  144.7445  164.7441 H       1  UNL1        0.2108
     22 C         141.5915  143.9366  163.5452 C.3     1  UNL1        0.0855
     23 C         142.3881  145.1513  163.9196 C.3     1  UNL1        0.0186
     24 C         143.8084  145.2886  163.4570 C.3     1  UNL1        0.0029
     25 C         144.4321  144.2113  162.6200 C.3     1  UNL1        0.0171
     26 C         143.6355  142.9967  162.2457 C.3     1  UNL1        0.0686
     27 N         142.2153  142.8594  162.7082 N.3     1  UNL1       -0.2963
     28 H         142.1646  141.9977  163.2518 H       1  UNL1        0.1233
@<TRIPOS>BOND
     1    19    20    1
     2    20     1    1
     3     1     2   ar
     4     2     3   ar
     5     3    11    1
     6    11    12    1
     7    11    13    1
     8    11    14    1
     9     3     4   ar
    10     4     5   ar
    11     5     6   ar
    12     6    15    1
    13    15    16    1
    14    15    17    1
    15    15    18    1
    16     6     7   ar
    17     7     8   ar
    18     8     9   ar
    19     9    10   ar
    20    20    22    1
    21    22    23    1
    22    23    24    1
    23    24    25    1
    24    25    26    1
    25    26    27    1
    26    10     1   ar
    27    27    22    1
    28    10     5   ar
    29    19    21    1
    30    27    28    1
@<TRIPOS>MOLECULE
*****
 28 30 0 0 0
SMALL
GASTEIGER

@<TRIPOS>ATOM
      1 C         140.3251  139.2210  166.0331 C.ar    1  UNL1        0.0084
      2 C         141.5544  139.0815  165.1850 C.ar    1  UNL1        0.0212
      3 C         142.8701  139.6057  165.6793 C.ar    1  UNL1        0.1523
      4 N         142.9564  140.2695  167.0217 N.ar    1  UNL1       -0.2414
      5 C         141.7270  140.4090  167.8698 C.ar    1  UNL1        0.0848
      6 C         141.8133  141.0727  169.2122 C.ar    1  UNL1        0.0890
      7 C         140.5840  141.2122  170.0602 C.ar    1  UNL1        0.0054
      8 C         139.2684  140.6880  169.5659 C.ar    1  UNL1        0.0000
      9 C         139.1821  140.0243  168.2236 C.ar    1  UNL1        0.0012
     10 C         140.4114  139.8848  167.3755 C.ar    1  UNL1        0.0160
     11 C         144.0994  139.4662  164.8312 C.3     1  UNL1        0.4348
     12 F         145.3287  139.3267  163.9830 F       1  UNL1       -0.1644
     13 F         144.6423  138.4447  165.7860 F       1  UNL1       -0.1644
     14 F         143.5566  140.4877  163.8763 F       1  UNL1       -0.1644
     15 C         143.1289  141.5970  169.7065 C.3     1  UNL1        0.4200
     16 F         144.4445  142.1212  170.2007 F       1  UNL1       -0.1658
     17 F         142.8638  142.9060  169.0237 F       1  UNL1       -0.1658
     18 F         143.3940  140.2879  170.3892 F       1  UNL1       -0.1658
     19 O         138.1720  137.8198  166.4219 O.3     1  UNL1       -0.3787
     20 C         139.0095  138.6967  165.5388 C.3     1  UNL1        0.1470
     21 H         138.6229  137.6913  167.2710 H       1  UNL1        0.2108
     22 C         138.5313  139.0494  164.1615 C.3     1  UNL1        0.0855
     23 C         138.0813  140.4479  163.8590 C.3     1  UNL1        0.0186
     24 C         137.6031  140.8005  162.4816 C.3     1  UNL1        0.0029
     25 C         137.5750  139.7546  161.4068 C.3     1  UNL1        0.0171
     26 C         138.0251  138.3560  161.7093 C.3     1  UNL1        0.0686
     27 N         138.5033  138.0034  163.0866 N.3     1  UNL1       -0.2963
     28 H         139.4577  137.6575  162.9874 H       1  UNL1        0.1233
@<TRIPOS>BOND
     1    19    20    1
     2    20     1    1
     3     1     2   ar
     4     2     3   ar
     5     3    11    1
     6    11    12    1
     7    11    13    1
     8    11    14    1
     9     3     4   ar
    10     4     5   ar
    11     5     6   ar
    12     6    15    1
    13    15    16    1
    14    15    17    1
    15    15    18    1
    16     6     7   ar
    17     7     8   ar
    18     8     9   ar
    19     9    10   ar
    20    20    22    1
    21    22    23    1
    22    23    24    1
    23    24    25    1
    24    25    26    1
    25    26    27    1
    26    10     1   ar
    27    27    22    1
    28    10     5   ar
    29    19    21    1
    30    27    28    1
@<TRIPOS>MOLECULE
*****
 28 30 0 0 0
SMALL
GASTEIGER

@<TRIPOS>ATOM
      1 C         138.8732  141.6696  163.9035 C.ar    1  UNL1        0.0084
      2 C         139.6534  142.8930  163.5234 C.ar    1  UNL1        0.0212
      3 C         140.6030  143.5121  164.5057 C.ar    1  UNL1        0.1523
      4 N         140.7724  142.9078  165.8681 N.ar    1  UNL1       -0.2414
      5 C         139.9921  141.6843  166.2482 C.ar    1  UNL1        0.0848
      6 C         140.1615  141.0800  167.6106 C.ar    1  UNL1        0.0890
      7 C         139.3813  139.8566  167.9906 C.ar    1  UNL1        0.0054
      8 C         138.4317  139.2375  167.0083 C.ar    1  UNL1        0.0000
      9 C         138.2623  139.8418  165.6459 C.ar    1  UNL1        0.0012
     10 C         139.0425  141.0652  165.2659 C.ar    1  UNL1        0.0160
     11 C         141.3833  144.7356  164.1256 C.3     1  UNL1        0.4348
     12 F         142.1635  145.9589  163.7456 F       1  UNL1       -0.1644
     13 F         140.1315  145.3689  163.5946 F       1  UNL1       -0.1644
     14 F         142.6350  144.1022  164.6567 F       1  UNL1       -0.1644
     15 C         141.1111  141.6991  168.5929 C.3     1  UNL1        0.4200
     16 F         142.0607  142.3182  169.5752 F       1  UNL1       -0.1658
     17 F         140.0307  142.6351  169.0474 F       1  UNL1       -0.1658
     18 F         142.1915  140.7631  168.1384 F       1  UNL1       -0.1658
     19 O         136.4471  141.2751  163.0617 O.3     1  UNL1       -0.3787
     20 C         137.9236  141.0505  162.9211 C.3     1  UNL1        0.1470
     21 H         136.2777  141.8383  163.8330 H       1  UNL1        0.2108
     22 C         138.4503  140.2069  161.7983 C.3     1  UNL1        0.0855
     23 C         139.2616  138.9813  162.0979 C.3     1  UNL1        0.0186
     24 C         139.7884  138.1376  160.9750 C.3     1  UNL1        0.0029
     25 C         139.5039  138.5196  159.5526 C.3     1  UNL1        0.0171
     26 C         138.6926  139.7452  159.2531 C.3     1  UNL1        0.0686
     27 N         138.1659  140.5888  160.3759 N.3     1  UNL1       -0.2963
     28 H         137.1512  140.6132  160.2749 H       1  UNL1        0.1233
@<TRIPOS>BOND
     1    19    20    1
     2    20     1    1
     3     1     2   ar
     4     2     3   ar
     5     3    11    1
     6    11    12    1
     7    11    13    1
     8    11    14    1
     9     3     4   ar
    10     4     5   ar
    11     5     6   ar
    12     6    15    1
    13    15    16    1
    14    15    17    1
    15    15    18    1
    16     6     7   ar
    17     7     8   ar
    18     8     9   ar
    19     9    10   ar
    20    20    22    1
    21    22    23    1
    22    23    24    1
    23    24    25    1
    24    25    26    1
    25    26    27    1
    26    10     1   ar
    27    27    22    1
    28    10     5   ar
    29    19    21    1
    30    27    28    1
@<TRIPOS>MOLECULE
*****
 28 30 0 0 0
SMALL
GASTEIGER

@<TRIPOS>ATOM
      1 C         140.1967  142.6198  165.8444 C.ar    1  UNL1        0.0084
      2 C         140.5159  142.5879  167.3096 C.ar    1  UNL1        0.0212
      3 C         140.1452  141.3895  168.1321 C.ar    1  UNL1        0.1523
      4 N         139.4554  140.2229  167.4893 N.ar    1  UNL1       -0.2414
      5 C         139.1362  140.2548  166.0239 C.ar    1  UNL1        0.0848
      6 C         138.4464  139.0882  165.3811 C.ar    1  UNL1        0.0890
      7 C         138.1273  139.1200  163.9158 C.ar    1  UNL1        0.0054
      8 C         138.4979  140.3184  163.0934 C.ar    1  UNL1        0.0000
      9 C         139.1877  141.4850  163.7362 C.ar    1  UNL1        0.0012
     10 C         139.5069  141.4532  165.2015 C.ar    1  UNL1        0.0160
     11 C         140.4644  141.3577  169.5975 C.3     1  UNL1        0.4348
     12 F         140.7836  141.3259  171.0627 F       1  UNL1       -0.1644
     13 F         140.1796  142.8274  169.6915 F       1  UNL1       -0.1644
     14 F         140.7492  139.8880  169.5035 F       1  UNL1       -0.1644
     15 C         138.0758  137.8898  166.2036 C.3     1  UNL1        0.4200
     16 F         137.7051  136.6914  167.0260 F       1  UNL1       -0.1658
     17 F         137.1081  138.7266  166.9868 F       1  UNL1       -0.1658
     18 F         139.0435  137.0530  165.4204 F       1  UNL1       -0.1658
     19 O         139.6299  144.9859  164.9330 O.3     1  UNL1       -0.3787
     20 C         140.5674  143.8182  165.0219 C.3     1  UNL1        0.1470
     21 H         138.8370  144.8049  165.4616 H       1  UNL1        0.2108
     22 C         141.8753  143.8489  164.2884 C.3     1  UNL1        0.0855
     23 C         142.4671  145.1606  163.8650 C.3     1  UNL1        0.0186
     24 C         143.7752  145.1913  163.1313 C.3     1  UNL1        0.0029
     25 C         144.4914  143.9104  162.8212 C.3     1  UNL1        0.0171
     26 C         143.8996  142.5987  163.2446 C.3     1  UNL1        0.0686
     27 N         142.5916  142.5680  163.9781 N.3     1  UNL1       -0.2963
     28 H         142.7650  142.1042  164.8699 H       1  UNL1        0.1233
@<TRIPOS>BOND
     1    19    20    1
     2    20     1    1
     3     1     2   ar
     4     2     3   ar
     5     3    11    1
     6    11    12    1
     7    11    13    1
     8    11    14    1
     9     3     4   ar
    10     4     5   ar
    11     5     6   ar
    12     6    15    1
    13    15    16    1
    14    15    17    1
    15    15    18    1
    16     6     7   ar
    17     7     8   ar
    18     8     9   ar
    19     9    10   ar
    20    20    22    1
    21    22    23    1
    22    23    24    1
    23    24    25    1
    24    25    26    1
    25    26    27    1
    26    10     1   ar
    27    27    22    1
    28    10     5   ar
    29    19    21    1
    30    27    28    1
@<TRIPOS>MOLECULE
*****
 28 30 0 0 0
SMALL
GASTEIGER

@<TRIPOS>ATOM
      1 C         138.7362  139.9458  165.3220 C.ar    1  UNL1        0.0084
      2 C         138.1573  141.2801  164.9552 C.ar    1  UNL1        0.0212
      3 C         138.3897  141.8478  163.5864 C.ar    1  UNL1        0.1523
      4 N         139.2010  141.0812  162.5843 N.ar    1  UNL1       -0.2414
      5 C         139.7799  139.7468  162.9511 C.ar    1  UNL1        0.0848
      6 C         140.5912  138.9802  161.9491 C.ar    1  UNL1        0.0890
      7 C         141.1700  137.6459  162.3159 C.ar    1  UNL1        0.0054
      8 C         140.9376  137.0782  163.6847 C.ar    1  UNL1        0.0000
      9 C         140.1263  137.8448  164.6867 C.ar    1  UNL1        0.0012
     10 C         139.5475  139.1791  164.3199 C.ar    1  UNL1        0.0160
     11 C         137.8108  143.1821  163.2196 C.3     1  UNL1        0.4348
     12 F         137.2320  144.5164  162.8529 F       1  UNL1       -0.1644
     13 F         138.0803  142.9009  161.7711 F       1  UNL1       -0.1644
     14 F         137.5414  143.4633  164.6681 F       1  UNL1       -0.1644
     15 C         140.8236  139.5479  160.5802 C.3     1  UNL1        0.4200
     16 F         141.0561  140.1156  159.2114 F       1  UNL1       -0.1658
     17 F         142.0274  140.2837  161.0898 F       1  UNL1       -0.1658
     18 F         139.6199  138.8121  160.0707 F       1  UNL1       -0.1658
     19 O         137.3575  138.4403  166.9291 O.3     1  UNL1       -0.3787
     20 C         138.5037  139.3781  166.6908 C.3     1  UNL1        0.1470
     21 H         136.8706  138.3077  166.1007 H       1  UNL1        0.2108
     22 C         139.4175  139.7482  167.8213 C.3     1  UNL1        0.0855
     23 C         140.8578  140.0659  167.5483 C.3     1  UNL1        0.0186
     24 C         141.7715  140.4360  168.6789 C.3     1  UNL1        0.0029
     25 C         141.2449  140.4883  170.0824 C.3     1  UNL1        0.0171
     26 C         139.8046  140.1706  170.3555 C.3     1  UNL1        0.0686
     27 N         138.8909  139.8005  169.2250 N.3     1  UNL1       -0.2963
     28 H         138.1287  140.4783  169.2284 H       1  UNL1        0.1233
@<TRIPOS>BOND
     1    19    20    1
     2    20     1    1
     3     1     2   ar
     4     2     3   ar
     5     3    11    1
     6    11    12    1
     7    11    13    1
     8    11    14    1
     9     3     4   ar
    10     4     5   ar
    11     5     6   ar
    12     6    15    1
    13    15    16    1
    14    15    17    1
    15    15    18    1
    16     6     7   ar
    17     7     8   ar
    18     8     9   ar
    19     9    10   ar
    20    20    22    1
    21    22    23    1
    22    23    24    1
    23    24    25    1
    24    25    26    1
    25    26    27    1
    26    10     1   ar
    27    27    22    1
    28    10     5   ar
    29    19    21    1
    30    27    28    1
@<TRIPOS>MOLECULE
*****
 28 30 0 0 0
SMALL
GASTEIGER

@<TRIPOS>ATOM
      1 C         139.3707  139.5245  163.6717 C.ar    1  UNL1        0.0084
      2 C         139.7527  139.2006  165.0856 C.ar    1  UNL1        0.0212
      3 C         139.7166  140.2707  166.1361 C.ar    1  UNL1        0.1523
      4 N         139.2985  141.6646  165.7728 N.ar    1  UNL1       -0.2414
      5 C         138.9165  141.9886  164.3588 C.ar    1  UNL1        0.0848
      6 C         138.4984  143.3826  163.9955 C.ar    1  UNL1        0.0890
      7 C         138.1164  143.7065  162.5816 C.ar    1  UNL1        0.0054
      8 C         138.1525  142.6364  161.5311 C.ar    1  UNL1        0.0000
      9 C         138.5706  141.2424  161.8944 C.ar    1  UNL1        0.0012
     10 C         138.9526  140.9185  163.3083 C.ar    1  UNL1        0.0160
     11 C         140.0986  139.9467  167.5501 C.3     1  UNL1        0.4348
     12 F         140.4806  139.6228  168.9639 F       1  UNL1       -0.1644
     13 F         138.6907  139.5120  167.8309 F       1  UNL1       -0.1644
     14 F         141.5064  140.3815  167.2693 F       1  UNL1       -0.1644
     15 C         138.4623  144.4526  165.0461 C.3     1  UNL1        0.4200
     16 F         138.4262  145.5227  166.0966 F       1  UNL1       -0.1658
     17 F         136.9833  144.2538  165.1978 F       1  UNL1       -0.1658
     18 F         139.9413  144.6514  164.8943 F       1  UNL1       -0.1658
     19 O         138.2414  137.5242  162.4577 O.3     1  UNL1       -0.3787
     20 C         139.4068  138.4545  162.6211 C.3     1  UNL1        0.1470
     21 H         137.5546  137.7497  163.1046 H       1  UNL1        0.2108
     22 C         140.6082  138.3146  161.7340 C.3     1  UNL1        0.0855
     23 C         141.9383  137.9511  162.3245 C.3     1  UNL1        0.0186
     24 C         143.1397  137.8112  161.4373 C.3     1  UNL1        0.0029
     25 C         143.0110  138.0349  159.9597 C.3     1  UNL1        0.0171
     26 C         141.6809  138.3984  159.3692 C.3     1  UNL1        0.0686
     27 N         140.4795  138.5382  160.2563 N.3     1  UNL1       -0.2963
     28 H         139.7842  137.8734  159.9173 H       1  UNL1        0.1233
@<TRIPOS>BOND
     1    19    20    1
     2    20     1    1
     3     1     2   ar
     4     2     3   ar
     5     3    11    1
     6    11    12    1
     7    11    13    1
     8    11    14    1
     9     3     4   ar
    10     4     5   ar
    11     5     6   ar
    12     6    15    1
    13    15    16    1
    14    15    17    1
    15    15    18    1
    16     6     7   ar
    17     7     8   ar
    18     8     9   ar
    19     9    10   ar
    20    20    22    1
    21    22    23    1
    22    23    24    1
    23    24    25    1
    24    25    26    1
    25    26    27    1
    26    10     1   ar
    27    27    22    1
    28    10     5   ar
    29    19    21    1
    30    27    28    1
@<TRIPOS>MOLECULE
*****
 28 30 0 0 0
SMALL
GASTEIGER

@<TRIPOS>ATOM
      1 C         141.2129  141.7473  165.8536 C.ar    1  UNL1        0.0084
      2 C         140.2119  142.7202  165.3047 C.ar    1  UNL1        0.0212
      3 C         139.2827  142.2998  164.2047 C.ar    1  UNL1        0.1523
      4 N         139.3545  140.9066  163.6537 N.ar    1  UNL1       -0.2414
      5 C         140.3556  139.9336  164.2026 C.ar    1  UNL1        0.0848
      6 C         140.4274  138.5404  163.6516 C.ar    1  UNL1        0.0890
      7 C         141.4285  137.5675  164.2005 C.ar    1  UNL1        0.0054
      8 C         142.3577  137.9878  165.3005 C.ar    1  UNL1        0.0000
      9 C         142.2858  139.3811  165.8515 C.ar    1  UNL1        0.0012
     10 C         141.2848  140.3540  165.3026 C.ar    1  UNL1        0.0160
     11 C         138.2816  143.2728  163.6558 C.3     1  UNL1        0.4348
     12 F         137.2806  144.2458  163.1069 F       1  UNL1       -0.1644
     13 F         137.3098  142.8779  164.7280 F       1  UNL1       -0.1644
     14 F         139.2534  143.6677  162.5836 F       1  UNL1       -0.1644
     15 C         139.4982  138.1201  162.5516 C.3     1  UNL1        0.4200
     16 F         138.5690  137.6997  161.4517 F       1  UNL1       -0.1658
     17 F         138.5604  137.5369  163.5667 F       1  UNL1       -0.1658
     18 F         140.4360  138.7032  161.5365 F       1  UNL1       -0.1658
     19 O         143.5221  142.6549  166.6244 O.3     1  UNL1       -0.3787
     20 C         142.1421  142.1676  166.9536 C.3     1  UNL1        0.1470
     21 H         143.6511  142.6355  165.6632 H       1  UNL1        0.2108
     22 C         141.6914  142.1008  168.3826 C.3     1  UNL1        0.0855
     23 C         140.5863  142.9940  168.8631 C.3     1  UNL1        0.0186
     24 C         140.1356  142.9271  170.2923 C.3     1  UNL1        0.0029
     25 C         140.7900  141.9669  171.2409 C.3     1  UNL1        0.0171
     26 C         141.8950  141.0737  170.7604 C.3     1  UNL1        0.0686
     27 N         142.3457  141.1405  169.3313 N.3     1  UNL1       -0.2963
     28 H         142.2202  140.2074  168.9390 H       1  UNL1        0.1233
@<TRIPOS>BOND
     1    19    20    1
     2    20     1    1
     3     1     2   ar
     4     2     3   ar
     5     3    11    1
     6    11    12    1
     7    11    13    1
     8    11    14    1
     9     3     4   ar
    10     4     5   ar
    11     5     6   ar
    12     6    15    1
    13    15    16    1
    14    15    17    1
    15    15    18    1
    16     6     7   ar
    17     7     8   ar
    18     8     9   ar
    19     9    10   ar
    20    20    22    1
    21    22    23    1
    22    23    24    1
    23    24    25    1
    24    25    26    1
    25    26    27    1
    26    10     1   ar
    27    27    22    1
    28    10     5   ar
    29    19    21    1
    30    27    28    1
@<TRIPOS>MOLECULE
*****
 28 30 0 0 0
SMALL
GASTEIGER

@<TRIPOS>ATOM
      1 C         141.0248  141.5726  165.3046 C.ar    1  UNL1        0.0084
      2 C         142.4989  141.4921  165.0390 C.ar    1  UNL1        0.0212
      3 C         143.1056  142.2959  163.9273 C.ar    1  UNL1        0.1523
      4 N         142.2382  143.1801  163.0812 N.ar    1  UNL1       -0.2414
      5 C         140.7641  143.2606  163.3469 C.ar    1  UNL1        0.0848
      6 C         139.8967  144.1447  162.5008 C.ar    1  UNL1        0.0890
      7 C         138.4227  144.2251  162.7665 C.ar    1  UNL1        0.0054
      8 C         137.8160  143.4214  163.8781 C.ar    1  UNL1        0.0000
      9 C         138.6833  142.5372  164.7242 C.ar    1  UNL1        0.0012
     10 C         140.1574  142.4568  164.4586 C.ar    1  UNL1        0.0160
     11 C         144.5798  142.2155  163.6617 C.3     1  UNL1        0.4348
     12 F         146.0538  142.1350  163.3961 F       1  UNL1       -0.1644
     13 F         144.4930  143.4454  162.8076 F       1  UNL1       -0.1644
     14 F         144.6665  140.9855  164.5158 F       1  UNL1       -0.1644
     15 C         140.5034  144.9485  161.3891 C.3     1  UNL1        0.4200
     16 F         141.1101  145.7523  160.2774 F       1  UNL1       -0.1658
     17 F         140.3096  143.7954  160.4496 F       1  UNL1       -0.1658
     18 F         140.6973  146.1016  162.3286 F       1  UNL1       -0.1658
     19 O         139.9997  139.3489  166.1733 O.3     1  UNL1       -0.3787
     20 C         140.4181  140.7688  166.4163 C.3     1  UNL1        0.1470
     21 H         140.1893  139.1090  165.2528 H       1  UNL1        0.2108
     22 C         140.2299  141.3848  167.7709 C.3     1  UNL1        0.0855
     23 C         140.6235  142.8129  168.0067 C.3     1  UNL1        0.0186
     24 C         140.4352  143.4289  169.3614 C.3     1  UNL1        0.0029
     25 C         139.8534  142.6168  170.4803 C.3     1  UNL1        0.0171
     26 C         139.4598  141.1887  170.2445 C.3     1  UNL1        0.0686
     27 N         139.6480  140.5727  168.8899 N.3     1  UNL1       -0.2963
     28 H         138.7287  140.2589  168.5788 H       1  UNL1        0.1233
@<TRIPOS>BOND
     1    19    20    1
     2    20     1    1
     3     1     2   ar
     4     2     3   ar
     5     3    11    1
     6    11    12    1
     7    11    13    1
     8    11    14    1
     9     3     4   ar
    10     4     5   ar
    11     5     6   ar
    12     6    15    1
    13    15    16    1
    14    15    17    1
    15    15    18    1
    16     6     7   ar
    17     7     8   ar
    18     8     9   ar
    19     9    10   ar
    20    20    22    1
    21    22    23    1
    22    23    24    1
    23    24    25    1
    24    25    26    1
    25    26    27    1
    26    10     1   ar
    27    27    22    1
    28    10     5   ar
    29    19    21    1
    30    27    28    1
