@<TRIPOS>MOLECULE
*****
 30 33 0 0 0
SMALL
GASTEIGER

@<TRIPOS>ATOM
      1 N         137.3348  140.4696  163.3910 N.pl3   1  UNL1       -0.3089
      2 H         136.4426  140.0533  163.3830 H       1  UNL1        0.1523
      3 C         140.7019  142.8888  166.5231 C.3     1  UNL1        0.0324
      4 C         139.8186  141.7135  166.2252 C.ar    1  UNL1       -0.0073
      5 C         139.0183  141.6792  164.9571 C.ar    1  UNL1        0.0116
      6 C         138.1351  140.5039  164.6592 C.ar    1  UNL1        0.0482
      7 C         138.0521  139.3631  165.6296 C.ar    1  UNL1        0.0159
      8 C         138.8524  139.3975  166.8977 C.ar    1  UNL1        0.0155
      9 C         139.7357  140.5727  167.1956 C.ar    1  UNL1        0.0439
     10 N         140.5360  140.6071  168.4638 N.pl3   1  UNL1       -0.3059
     11 C         139.9617  141.2408  169.6961 C.3     1  UNL1        0.1024
     12 C         140.7620  141.2752  170.9643 C.3     1  UNL1        0.0790
     13 S         142.1366  140.6758  171.0003 S.3     1  UNL1       -0.1367
     14 C         142.7109  140.0420  169.7680 C.3     1  UNL1        0.0790
     15 C         141.9106  140.0077  168.4997 C.3     1  UNL1        0.1024
     16 C         137.8937  141.0696  162.1350 C.2     1  UNL1        0.1076
     17 C         138.5242  140.5237  160.8881 C.2     1  UNL1        0.1045
     18 C         138.6842  141.9181  160.3587 C.2     1  UNL1        0.2498
     19 O         139.2431  142.5180  159.1027 O.2     1  UNL1       -0.2817
     20 C         138.0537  142.4638  161.6055 C.2     1  UNL1        0.2500
     21 O         137.7210  143.8357  162.1127 O.2     1  UNL1       -0.2817
     22 N         138.8570  139.1519  160.3809 N.pl3   1  UNL1       -0.3242
     23 H         138.1889  138.6408  159.8693 H       1  UNL1        0.1473
     24 C         140.2075  138.5588  160.6530 C.3     1  UNL1        0.1338
     25 C         140.7147  138.4630  162.0614 C.ar    1  UNL1        0.0788
     26 C         141.4143  139.6326  162.6878 C.ar    1  UNL1        0.0165
     27 C         141.9214  139.5367  164.0962 C.ar    1  UNL1        0.0029
     28 C         141.7289  138.2713  164.8782 C.ar    1  UNL1        0.0207
     29 C         141.0292  137.1017  164.2518 C.ar    1  UNL1        0.0985
     30 N         140.5221  137.1975  162.8434 N.ar    1  UNL1       -0.2464
@<TRIPOS>BOND
     1     3     4    1
     2     4     5   ar
     3     5     6   ar
     4     6     1    1
     5     1    16    1
     6    16    17    2
     7    17    22    1
     8    22    24    1
     9    24    25    1
    10    25    26   ar
    11    26    27   ar
    12    27    28   ar
    13    28    29   ar
    14    29    30   ar
    15    17    18    1
    16    18    19    2
    17    18    20    1
    18    20    21    2
    19     6     7   ar
    20     7     8   ar
    21     8     9   ar
    22     9    10    1
    23    10    11    1
    24    11    12    1
    25    12    13    1
    26    13    14    1
    27    14    15    1
    28     9     4   ar
    29    15    10    1
    30    20    16    1
    31    30    25   ar
    32     1     2    1
    33    22    23    1
@<TRIPOS>MOLECULE
*****
 30 33 0 0 0
SMALL
GASTEIGER

@<TRIPOS>ATOM
      1 N         139.3604  140.0188  168.9786 N.pl3   1  UNL1       -0.3089
      2 H         138.8044  139.4405  169.5492 H       1  UNL1        0.1523
      3 C         140.0865  142.1229  164.2833 C.3     1  UNL1        0.0324
      4 C         139.6054  140.9879  165.1379 C.ar    1  UNL1       -0.0073
      5 C         139.7234  141.0708  166.6309 C.ar    1  UNL1        0.0116
      6 C         139.2423  139.9358  167.4855 C.ar    1  UNL1        0.0482
      7 C         138.6432  138.7179  166.8471 C.ar    1  UNL1        0.0159
      8 C         138.5251  138.6350  165.3541 C.ar    1  UNL1        0.0155
      9 C         139.0062  139.7700  164.4995 C.ar    1  UNL1        0.0439
     10 N         138.8882  139.6870  163.0064 N.pl3   1  UNL1       -0.3059
     11 C         137.7149  140.3115  162.3110 C.3     1  UNL1        0.1024
     12 C         137.5968  140.2285  160.8180 C.3     1  UNL1        0.0790
     13 S         138.6519  139.5211  160.0203 S.3     1  UNL1       -0.1367
     14 C         139.8252  138.8966  160.7156 C.3     1  UNL1        0.0790
     15 C         139.9433  138.9796  162.2087 C.3     1  UNL1        0.1024
     16 C         140.3258  140.9828  169.6021 C.2     1  UNL1        0.1076
     17 C         141.8201  141.1012  169.6573 C.2     1  UNL1        0.1045
     18 C         141.6909  142.3461  170.4840 C.2     1  UNL1        0.2498
     19 O         142.6563  143.3101  171.1075 O.2     1  UNL1       -0.2817
     20 C         140.1967  142.2278  170.4288 C.2     1  UNL1        0.2500
     21 O         139.0488  143.0244  170.9743 O.2     1  UNL1       -0.2817
     22 N         142.9681  140.3045  169.1118 N.pl3   1  UNL1       -0.3242
     23 H         143.8874  140.5033  169.4025 H       1  UNL1        0.1473
     24 C         142.7153  139.2050  168.1233 C.3     1  UNL1        0.1338
     25 C         142.8956  139.4594  166.6561 C.ar    1  UNL1        0.0788
     26 C         142.6578  138.3555  165.6687 C.ar    1  UNL1        0.0165
     27 C         142.8381  138.6099  164.2015 C.ar    1  UNL1        0.0029
     28 C         143.2563  139.9681  163.7216 C.ar    1  UNL1        0.0207
     29 C         143.4941  141.0720  164.7090 C.ar    1  UNL1        0.0985
     30 N         143.3138  140.8176  166.1762 N.ar    1  UNL1       -0.2464
@<TRIPOS>BOND
     1     3     4    1
     2     4     5   ar
     3     5     6   ar
     4     6     1    1
     5     1    16    1
     6    16    17    2
     7    17    22    1
     8    22    24    1
     9    24    25    1
    10    25    26   ar
    11    26    27   ar
    12    27    28   ar
    13    28    29   ar
    14    29    30   ar
    15    17    18    1
    16    18    19    2
    17    18    20    1
    18    20    21    2
    19     6     7   ar
    20     7     8   ar
    21     8     9   ar
    22     9    10    1
    23    10    11    1
    24    11    12    1
    25    12    13    1
    26    13    14    1
    27    14    15    1
    28     9     4   ar
    29    15    10    1
    30    20    16    1
    31    30    25   ar
    32     1     2    1
    33    22    23    1
@<TRIPOS>MOLECULE
*****
 30 33 0 0 0
SMALL
GASTEIGER

@<TRIPOS>ATOM
      1 N         139.5489  141.0418  169.0004 N.pl3   1  UNL1       -0.3089
      2 H         138.8286  140.7498  169.6047 H       1  UNL1        0.1523
      3 C         138.7091  137.5473  165.2476 C.3     1  UNL1        0.0324
      4 C         139.0759  138.9399  165.6675 C.ar    1  UNL1       -0.0073
      5 C         139.1290  139.2946  167.1240 C.ar    1  UNL1        0.0116
      6 C         139.4958  140.6871  167.5439 C.ar    1  UNL1        0.0482
      7 C         139.8095  141.7249  166.5073 C.ar    1  UNL1        0.0159
      8 C         139.7564  141.3702  165.0509 C.ar    1  UNL1        0.0155
      9 C         139.3896  139.9777  164.6310 C.ar    1  UNL1        0.0439
     10 N         139.3365  139.6230  163.1744 N.pl3   1  UNL1       -0.3059
     11 C         140.5518  139.0674  162.4930 C.3     1  UNL1        0.1024
     12 C         140.4987  138.7128  161.0365 C.3     1  UNL1        0.0790
     13 S         139.2303  138.9137  160.2614 S.3     1  UNL1       -0.1367
     14 C         138.0149  139.4692  160.9428 C.3     1  UNL1        0.0790
     15 C         138.0681  139.8239  162.3993 C.3     1  UNL1        0.1024
     16 C         140.6995  141.8412  169.5362 C.2     1  UNL1        0.1076
     17 C         142.1565  141.5750  169.7742 C.2     1  UNL1        0.1045
     18 C         142.3267  142.9718  170.2938 C.2     1  UNL1        0.2498
     19 O         143.4773  143.7712  170.8296 O.2     1  UNL1       -0.2817
     20 C         140.8699  143.2379  170.0558 C.2     1  UNL1        0.2500
     21 O         139.9602  144.4138  170.2549 O.2     1  UNL1       -0.2817
     22 N         143.0662  140.3991  169.5751 N.pl3   1  UNL1       -0.3242
     23 H         143.8849  140.3132  170.1150 H       1  UNL1        0.1473
     24 C         142.7285  139.3542  168.5533 C.3     1  UNL1        0.1338
     25 C         142.9965  139.6119  167.1001 C.ar    1  UNL1        0.0788
     26 C         143.0647  138.4656  166.1352 C.ar    1  UNL1        0.0165
     27 C         143.3326  138.7233  164.6820 C.ar    1  UNL1        0.0029
     28 C         143.5324  140.1275  164.1937 C.ar    1  UNL1        0.0207
     29 C         143.4642  141.2738  165.1586 C.ar    1  UNL1        0.0985
     30 N         143.1962  141.0161  166.6118 N.ar    1  UNL1       -0.2464
@<TRIPOS>BOND
     1     3     4    1
     2     4     5   ar
     3     5     6   ar
     4     6     1    1
     5     1    16    1
     6    16    17    2
     7    17    22    1
     8    22    24    1
     9    24    25    1
    10    25    26   ar
    11    26    27   ar
    12    27    28   ar
    13    28    29   ar
    14    29    30   ar
    15    17    18    1
    16    18    19    2
    17    18    20    1
    18    20    21    2
    19     6     7   ar
    20     7     8   ar
    21     8     9   ar
    22     9    10    1
    23    10    11    1
    24    11    12    1
    25    12    13    1
    26    13    14    1
    27    14    15    1
    28     9     4   ar
    29    15    10    1
    30    20    16    1
    31    30    25   ar
    32     1     2    1
    33    22    23    1
@<TRIPOS>MOLECULE
*****
 30 33 0 0 0
SMALL
GASTEIGER

@<TRIPOS>ATOM
      1 N         141.5257  142.2762  168.1059 N.pl3   1  UNL1       -0.3089
      2 H         142.3560  142.5472  168.5602 H       1  UNL1        0.1523
      3 C         138.3870  143.8825  164.2890 C.3     1  UNL1        0.0324
      4 C         139.7400  143.4340  164.7561 C.ar    1  UNL1       -0.0073
      5 C         139.9564  143.0794  166.1974 C.ar    1  UNL1        0.0116
      6 C         141.3094  142.6308  166.6645 C.ar    1  UNL1        0.0482
      7 C         142.4461  142.5369  165.6903 C.ar    1  UNL1        0.0159
      8 C         142.2297  142.8916  164.2490 C.ar    1  UNL1        0.0155
      9 C         140.8767  143.3401  163.7819 C.ar    1  UNL1        0.0439
     10 N         140.6604  143.6948  162.3405 N.pl3   1  UNL1       -0.3059
     11 C         140.3289  142.6221  161.3458 C.3     1  UNL1        0.1024
     12 C         140.1126  142.9767  159.9045 C.3     1  UNL1        0.0790
     13 S         140.2278  144.4040  159.4578 S.3     1  UNL1       -0.1367
     14 C         140.5593  145.4767  160.4525 C.3     1  UNL1        0.0790
     15 C         140.7756  145.1221  161.8939 C.3     1  UNL1        0.1024
     16 C         140.4770  141.5086  168.8549 C.2     1  UNL1        0.1076
     17 C         139.6122  140.3211  168.5514 C.2     1  UNL1        0.1045
     18 C         138.9939  140.4231  169.9141 C.2     1  UNL1        0.2498
     19 O         137.9451  139.6556  170.6632 O.2     1  UNL1       -0.2817
     20 C         139.8585  141.6106  170.2176 C.2     1  UNL1        0.2500
     21 O         140.0327  142.5224  171.3959 O.2     1  UNL1       -0.2817
     22 N         139.4380  139.4093  167.3731 N.pl3   1  UNL1       -0.3242
     23 H         140.1057  138.7095  167.1893 H       1  UNL1        0.1473
     24 C         138.2466  139.5636  166.4750 C.3     1  UNL1        0.1338
     25 C         138.3613  139.2403  165.0148 C.ar    1  UNL1        0.0788
     26 C         138.9045  137.9110  164.5813 C.ar    1  UNL1        0.0165
     27 C         139.0191  137.5877  163.1210 C.ar    1  UNL1        0.0029
     28 C         138.5905  138.5936  162.0943 C.ar    1  UNL1        0.0207
     29 C         138.0473  139.9229  162.5277 C.ar    1  UNL1        0.0985
     30 N         137.9326  140.2462  163.9880 N.ar    1  UNL1       -0.2464
@<TRIPOS>BOND
     1     3     4    1
     2     4     5   ar
     3     5     6   ar
     4     6     1    1
     5     1    16    1
     6    16    17    2
     7    17    22    1
     8    22    24    1
     9    24    25    1
    10    25    26   ar
    11    26    27   ar
    12    27    28   ar
    13    28    29   ar
    14    29    30   ar
    15    17    18    1
    16    18    19    2
    17    18    20    1
    18    20    21    2
    19     6     7   ar
    20     7     8   ar
    21     8     9   ar
    22     9    10    1
    23    10    11    1
    24    11    12    1
    25    12    13    1
    26    13    14    1
    27    14    15    1
    28     9     4   ar
    29    15    10    1
    30    20    16    1
    31    30    25   ar
    32     1     2    1
    33    22    23    1
@<TRIPOS>MOLECULE
*****
 30 33 0 0 0
SMALL
GASTEIGER

@<TRIPOS>ATOM
      1 N         142.6975  145.0355  162.5075 N.pl3   1  UNL1       -0.3089
      2 H         143.3410  145.7738  162.4071 H       1  UNL1        0.1523
      3 C         140.1027  142.2325  166.0303 C.3     1  UNL1        0.0324
      4 C         141.3898  142.8137  165.5248 C.ar    1  UNL1       -0.0073
      5 C         141.4001  143.6340  164.2690 C.ar    1  UNL1        0.0116
      6 C         142.6872  144.2152  163.7634 C.ar    1  UNL1        0.0482
      7 C         143.9639  143.9763  164.5136 C.ar    1  UNL1        0.0159
      8 C         143.9535  143.1560  165.7694 C.ar    1  UNL1        0.0155
      9 C         142.6665  142.5748  166.2750 C.ar    1  UNL1        0.0439
     10 N         142.6561  141.7545  167.5308 N.pl3   1  UNL1       -0.3059
     11 C         142.5751  140.2589  167.4491 C.3     1  UNL1        0.1024
     12 C         142.5648  139.4386  168.7049 C.3     1  UNL1        0.0790
     13 S         142.6355  140.1140  170.0425 S.3     1  UNL1       -0.1367
     14 C         142.7166  141.6095  170.1242 C.3     1  UNL1        0.0790
     15 C         142.7269  142.4298  168.8683 C.3     1  UNL1        0.1024
     16 C         141.7274  144.7309  161.4048 C.2     1  UNL1        0.1076
     17 C         141.6975  143.7691  160.2540 C.2     1  UNL1        0.1045
     18 C         140.3555  144.3000  159.8453 C.2     1  UNL1        0.2498
     19 O         139.3854  143.9954  158.7425 O.2     1  UNL1       -0.2817
     20 C         140.3854  145.2617  160.9960 C.2     1  UNL1        0.2500
     21 O         139.4576  146.3171  161.5206 O.2     1  UNL1       -0.2817
     22 N         142.6254  142.7137  159.7293 N.pl3   1  UNL1       -0.3242
     23 H         142.3723  142.1848  158.9385 H       1  UNL1        0.1473
     24 C         143.9387  142.4643  160.4095 C.3     1  UNL1        0.1338
     25 C         143.9962  141.6040  161.6369 C.ar    1  UNL1        0.0788
     26 C         142.7635  140.8954  162.1146 C.ar    1  UNL1        0.0165
     27 C         142.8209  140.0351  163.3420 C.ar    1  UNL1        0.0029
     28 C         144.1112  139.8834  164.0918 C.ar    1  UNL1        0.0207
     29 C         145.3439  140.5920  163.6141 C.ar    1  UNL1        0.0985
     30 N         145.2864  141.4523  162.3867 N.ar    1  UNL1       -0.2464
@<TRIPOS>BOND
     1     3     4    1
     2     4     5   ar
     3     5     6   ar
     4     6     1    1
     5     1    16    1
     6    16    17    2
     7    17    22    1
     8    22    24    1
     9    24    25    1
    10    25    26   ar
    11    26    27   ar
    12    27    28   ar
    13    28    29   ar
    14    29    30   ar
    15    17    18    1
    16    18    19    2
    17    18    20    1
    18    20    21    2
    19     6     7   ar
    20     7     8   ar
    21     8     9   ar
    22     9    10    1
    23    10    11    1
    24    11    12    1
    25    12    13    1
    26    13    14    1
    27    14    15    1
    28     9     4   ar
    29    15    10    1
    30    20    16    1
    31    30    25   ar
    32     1     2    1
    33    22    23    1
@<TRIPOS>MOLECULE
*****
 30 33 0 0 0
SMALL
GASTEIGER

@<TRIPOS>ATOM
      1 N         141.4735  137.2205  163.2302 N.pl3   1  UNL1       -0.3089
      2 H         141.7949  136.2925  163.2990 H       1  UNL1        0.1523
      3 C         138.4498  139.1971  166.9652 C.3     1  UNL1        0.0324
      4 C         139.8022  139.0411  166.3354 C.ar    1  UNL1       -0.0073
      5 C         139.9616  138.2088  165.0977 C.ar    1  UNL1        0.0116
      6 C         141.3140  138.0529  164.4679 C.ar    1  UNL1        0.0482
      7 C         142.5070  138.7292  165.0757 C.ar    1  UNL1        0.0159
      8 C         142.3475  139.5614  166.3134 C.ar    1  UNL1        0.0155
      9 C         140.9951  139.7174  166.9432 C.ar    1  UNL1        0.0439
     10 N         140.8357  140.5497  168.1809 N.pl3   1  UNL1       -0.3059
     11 C         140.9402  139.9099  169.5336 C.3     1  UNL1        0.1024
     12 C         140.7808  140.7421  170.7713 C.3     1  UNL1        0.0790
     13 S         140.5168  142.2143  170.6564 S.3     1  UNL1       -0.1367
     14 C         140.4123  142.8541  169.3037 C.3     1  UNL1        0.0790
     15 C         140.5717  142.0218  168.0660 C.3     1  UNL1        0.1024
     16 C         141.1432  137.8022  161.8876 C.2     1  UNL1        0.1076
     17 C         139.8910  138.2926  161.2231 C.2     1  UNL1        0.1045
     18 C         140.6761  138.6247  159.9889 C.2     1  UNL1        0.2498
     19 O         140.3458  139.2064  158.6463 O.2     1  UNL1       -0.2817
     20 C         141.9282  138.1344  160.6533 C.2     1  UNL1        0.2500
     21 O         143.3687  138.0225  160.2504 O.2     1  UNL1       -0.2817
     22 N         138.4504  138.4045  161.6259 N.pl3   1  UNL1       -0.3242
     23 H         138.0189  137.6702  162.1196 H       1  UNL1        0.1473
     24 C         137.6674  139.6353  161.2767 C.3     1  UNL1        0.1338
     25 C         137.7569  140.8534  162.1473 C.ar    1  UNL1        0.0788
     26 C         137.8107  140.7067  163.6392 C.ar    1  UNL1        0.0165
     27 C         137.9002  141.9249  164.5098 C.ar    1  UNL1        0.0029
     28 C         137.9361  143.2897  163.8887 C.ar    1  UNL1        0.0207
     29 C         137.8824  143.4364  162.3969 C.ar    1  UNL1        0.0985
     30 N         137.7928  142.2183  161.5262 N.ar    1  UNL1       -0.2464
@<TRIPOS>BOND
     1     3     4    1
     2     4     5   ar
     3     5     6   ar
     4     6     1    1
     5     1    16    1
     6    16    17    2
     7    17    22    1
     8    22    24    1
     9    24    25    1
    10    25    26   ar
    11    26    27   ar
    12    27    28   ar
    13    28    29   ar
    14    29    30   ar
    15    17    18    1
    16    18    19    2
    17    18    20    1
    18    20    21    2
    19     6     7   ar
    20     7     8   ar
    21     8     9   ar
    22     9    10    1
    23    10    11    1
    24    11    12    1
    25    12    13    1
    26    13    14    1
    27    14    15    1
    28     9     4   ar
    29    15    10    1
    30    20    16    1
    31    30    25   ar
    32     1     2    1
    33    22    23    1
@<TRIPOS>MOLECULE
*****
 30 33 0 0 0
SMALL
GASTEIGER

@<TRIPOS>ATOM
      1 N         137.7835  142.7168  162.8654 N.pl3   1  UNL1       -0.3089
      2 H         137.1753  143.4891  162.9205 H       1  UNL1        0.1523
      3 C         138.3769  139.0132  166.4614 C.3     1  UNL1        0.0324
      4 C         138.7552  140.3521  165.9008 C.ar    1  UNL1       -0.0073
      5 C         138.0802  140.8650  164.6634 C.ar    1  UNL1        0.0116
      6 C         138.4586  142.2039  164.1028 C.ar    1  UNL1        0.0482
      7 C         139.5120  143.0298  164.7796 C.ar    1  UNL1        0.0159
      8 C         140.1870  142.5169  166.0170 C.ar    1  UNL1        0.0155
      9 C         139.8086  141.1780  166.5776 C.ar    1  UNL1        0.0439
     10 N         140.4837  140.6651  167.8151 N.pl3   1  UNL1       -0.3059
     11 C         139.8458  140.8699  169.1571 C.3     1  UNL1        0.1024
     12 C         140.5208  140.3570  170.3945 C.3     1  UNL1        0.0790
     13 S         141.8338  139.6393  170.2900 S.3     1  UNL1       -0.1367
     14 C         142.4718  139.4345  168.9479 C.3     1  UNL1        0.0790
     15 C         141.7967  139.9474  167.7105 C.3     1  UNL1        0.1024
     16 C         138.0350  142.0531  161.5439 C.2     1  UNL1        0.1076
     17 C         137.7961  140.6827  160.9827 C.2     1  UNL1        0.1045
     18 C         138.3908  141.1145  159.6751 C.2     1  UNL1        0.2498
     19 O         138.6423  140.4508  158.3537 O.2     1  UNL1       -0.2817
     20 C         138.6297  142.4848  160.2363 C.2     1  UNL1        0.2500
     21 O         139.2192  143.7592  159.7084 O.2     1  UNL1       -0.2817
     22 N         137.2066  139.4084  161.5105 N.pl3   1  UNL1       -0.3242
     23 H         136.3165  139.4149  161.9312 H       1  UNL1        0.1473
     24 C         137.9732  138.1240  161.3974 C.3     1  UNL1        0.1338
     25 C         139.3515  138.0195  161.9798 C.ar    1  UNL1        0.0788
     26 C         139.5337  137.5729  163.4001 C.ar    1  UNL1        0.0165
     27 C         140.9120  137.4683  163.9825 C.ar    1  UNL1        0.0029
     28 C         142.1082  137.8103  163.1447 C.ar    1  UNL1        0.0207
     29 C         141.9260  138.2570  161.7244 C.ar    1  UNL1        0.0985
     30 N         140.5477  138.3615  161.1419 N.ar    1  UNL1       -0.2464
@<TRIPOS>BOND
     1     3     4    1
     2     4     5   ar
     3     5     6   ar
     4     6     1    1
     5     1    16    1
     6    16    17    2
     7    17    22    1
     8    22    24    1
     9    24    25    1
    10    25    26   ar
    11    26    27   ar
    12    27    28   ar
    13    28    29   ar
    14    29    30   ar
    15    17    18    1
    16    18    19    2
    17    18    20    1
    18    20    21    2
    19     6     7   ar
    20     7     8   ar
    21     8     9   ar
    22     9    10    1
    23    10    11    1
    24    11    12    1
    25    12    13    1
    26    13    14    1
    27    14    15    1
    28     9     4   ar
    29    15    10    1
    30    20    16    1
    31    30    25   ar
    32     1     2    1
    33    22    23    1
@<TRIPOS>MOLECULE
*****
 30 33 0 0 0
SMALL
GASTEIGER

@<TRIPOS>ATOM
      1 N         139.1226  137.8015  163.4915 N.pl3   1  UNL1       -0.3089
      2 H         138.7470  136.8919  163.5178 H       1  UNL1        0.1523
      3 C         142.4936  140.3455  166.5189 C.3     1  UNL1        0.0324
      4 C         141.1186  139.7940  166.2837 C.ar    1  UNL1       -0.0073
      5 C         140.8081  139.0735  165.0052 C.ar    1  UNL1        0.0116
      6 C         139.4331  138.5220  164.7700 C.ar    1  UNL1        0.0482
      7 C         138.3687  138.6910  165.8133 C.ar    1  UNL1        0.0159
      8 C         138.6792  139.4115  167.0917 C.ar    1  UNL1        0.0155
      9 C         140.0542  139.9630  167.3269 C.ar    1  UNL1        0.0439
     10 N         140.3647  140.6835  168.6054 N.pl3   1  UNL1       -0.3059
     11 C         140.7573  139.9072  169.8274 C.3     1  UNL1        0.1024
     12 C         141.0678  140.6277  171.1059 C.3     1  UNL1        0.0790
     13 S         140.9857  142.1244  171.1624 S.3     1  UNL1       -0.1367
     14 C         140.5931  142.9006  169.9404 C.3     1  UNL1        0.0790
     15 C         140.2826  142.1801  168.6619 C.3     1  UNL1        0.1024
     16 C         139.3845  138.4670  162.1730 C.2     1  UNL1        0.1076
     17 C         138.7056  139.5386  161.3723 C.2     1  UNL1        0.1045
     18 C         139.7548  139.4081  160.3083 C.2     1  UNL1        0.2498
     19 O         140.0167  140.0736  158.9897 O.2     1  UNL1       -0.2817
     20 C         140.4336  138.3366  161.1088 C.2     1  UNL1        0.2500
     21 O         141.6554  137.4867  160.9225 O.2     1  UNL1       -0.2817
     22 N         137.4838  140.3885  161.5586 N.pl3   1  UNL1       -0.3242
     23 H         136.8838  140.5615  160.7975 H       1  UNL1        0.1473
     24 C         137.1762  140.9749  162.9045 C.3     1  UNL1        0.1338
     25 C         137.8515  142.2403  163.3434 C.ar    1  UNL1        0.0788
     26 C         138.5746  142.2879  164.6567 C.ar    1  UNL1        0.0165
     27 C         139.2499  143.5533  165.0956 C.ar    1  UNL1        0.0029
     28 C         139.2021  144.7711  164.2212 C.ar    1  UNL1        0.0207
     29 C         138.4790  144.7235  162.9079 C.ar    1  UNL1        0.0985
     30 N         137.8037  143.4581  162.4690 N.ar    1  UNL1       -0.2464
@<TRIPOS>BOND
     1     3     4    1
     2     4     5   ar
     3     5     6   ar
     4     6     1    1
     5     1    16    1
     6    16    17    2
     7    17    22    1
     8    22    24    1
     9    24    25    1
    10    25    26   ar
    11    26    27   ar
    12    27    28   ar
    13    28    29   ar
    14    29    30   ar
    15    17    18    1
    16    18    19    2
    17    18    20    1
    18    20    21    2
    19     6     7   ar
    20     7     8   ar
    21     8     9   ar
    22     9    10    1
    23    10    11    1
    24    11    12    1
    25    12    13    1
    26    13    14    1
    27    14    15    1
    28     9     4   ar
    29    15    10    1
    30    20    16    1
    31    30    25   ar
    32     1     2    1
    33    22    23    1
@<TRIPOS>MOLECULE
*****
 30 33 0 0 0
SMALL
GASTEIGER

@<TRIPOS>ATOM
      1 N         137.6430  142.6372  162.8818 N.pl3   1  UNL1       -0.3089
      2 H         136.8853  143.2587  162.9759 H       1  UNL1        0.1523
      3 C         138.4936  138.7888  166.2680 C.3     1  UNL1        0.0324
      4 C         138.7629  140.1868  165.7959 C.ar    1  UNL1       -0.0073
      5 C         138.0683  140.7130  164.5750 C.ar    1  UNL1        0.0116
      6 C         138.3377  142.1110  164.1028 C.ar    1  UNL1        0.0482
      7 C         139.3015  142.9829  164.8516 C.ar    1  UNL1        0.0159
      8 C         139.9961  142.4568  166.0725 C.ar    1  UNL1        0.0155
      9 C         139.7268  141.0587  166.5446 C.ar    1  UNL1        0.0439
     10 N         140.4215  140.5326  167.7656 N.pl3   1  UNL1       -0.3059
     11 C         141.7886  139.9266  167.6481 C.3     1  UNL1        0.1024
     12 C         142.4832  139.4005  168.8690 C.3     1  UNL1        0.0790
     13 S         141.8107  139.4803  170.2075 S.3     1  UNL1       -0.1367
     14 C         140.4436  140.0863  170.3250 C.3     1  UNL1        0.0790
     15 C         139.7490  140.6124  169.1040 C.3     1  UNL1        0.1024
     16 C         138.1028  142.2163  161.5175 C.2     1  UNL1        0.1076
     17 C         138.8781  142.8686  160.4113 C.2     1  UNL1        0.1045
     18 C         138.7530  141.6210  159.5880 C.2     1  UNL1        0.2498
     19 O         139.2128  141.2001  158.2237 O.2     1  UNL1       -0.2817
     20 C         137.9778  140.9688  160.6941 C.2     1  UNL1        0.2500
     21 O         137.3412  139.6253  160.8940 O.2     1  UNL1       -0.2817
     22 N         139.5146  144.2121  160.2114 N.pl3   1  UNL1       -0.3242
     23 H         138.9525  145.0168  160.1357 H       1  UNL1        0.1473
     24 C         141.0076  144.3295  160.1269 C.3     1  UNL1        0.1338
     25 C         141.8166  144.5231  161.3751 C.ar    1  UNL1        0.0788
     26 C         141.2005  145.1821  162.5734 C.ar    1  UNL1        0.0165
     27 C         142.0095  145.3758  163.8216 C.ar    1  UNL1        0.0029
     28 C         143.4346  144.9105  163.8715 C.ar    1  UNL1        0.0207
     29 C         144.0507  144.2515  162.6732 C.ar    1  UNL1        0.0985
     30 N         143.2417  144.0578  161.4249 N.ar    1  UNL1       -0.2464
@<TRIPOS>BOND
     1     3     4    1
     2     4     5   ar
     3     5     6   ar
     4     6     1    1
     5     1    16    1
     6    16    17    2
     7    17    22    1
     8    22    24    1
     9    24    25    1
    10    25    26   ar
    11    26    27   ar
    12    27    28   ar
    13    28    29   ar
    14    29    30   ar
    15    17    18    1
    16    18    19    2
    17    18    20    1
    18    20    21    2
    19     6     7   ar
    20     7     8   ar
    21     8     9   ar
    22     9    10    1
    23    10    11    1
    24    11    12    1
    25    12    13    1
    26    13    14    1
    27    14    15    1
    28     9     4   ar
    29    15    10    1
    30    20    16    1
    31    30    25   ar
    32     1     2    1
    33    22    23    1
