@<TRIPOS>MOLECULE
*****
 34 38 0 0 0
SMALL
GASTEIGER

@<TRIPOS>ATOM
      1 C         139.4994  142.5539  158.4411 C.3     1  UNL1        0.1531
      2 C         138.6370  142.4555  159.6645 C.3     1  UNL1        0.1067
      3 N         138.8715  141.3593  160.6611 N.3     1  UNL1       -0.2665
      4 C         138.0092  141.2609  161.8846 C.3     1  UNL1        0.0940
      5 C         138.2437  140.1648  162.8812 C.3     1  UNL1        0.1107
      6 N         139.3405  139.1670  162.6545 N.am    1  UNL1       -0.2763
      7 C         139.5750  138.0708  163.6513 C.2     1  UNL1        0.2318
      8 O         140.6718  137.0729  163.4246 O.2     1  UNL1       -0.2744
      9 C         140.2028  139.2653  161.4312 C.3     1  UNL1        0.1119
     10 C         139.9683  140.3615  160.4344 C.3     1  UNL1        0.1075
     11 C         140.8307  140.4599  159.2110 C.3     1  UNL1        0.1601
     12 O         140.5962  141.5560  158.2144 O.3     1  UNL1       -0.3489
     13 C         137.5945  142.1276  156.1629 C.3     1  UNL1        0.0316
     14 C         138.3125  143.4369  156.3053 C.ar    1  UNL1       -0.0117
     15 C         139.2649  143.6501  157.4443 C.ar    1  UNL1        0.0027
     16 C         139.9828  144.9594  157.5867 C.ar    1  UNL1        0.0001
     17 C         139.7484  146.0555  156.5901 C.ar    1  UNL1        0.0301
     18 C         138.7960  145.8424  155.4509 C.ar    1  UNL1        0.1493
     19 F         138.5616  146.9386  154.4542 F       1  UNL1       -0.2035
     20 C         138.0780  144.5331  155.3085 C.ar    1  UNL1        0.0916
     21 C         137.1257  144.3200  154.1695 C.1     1  UNL1        0.1024
     22 N         136.1733  144.1069  153.0304 N.1     1  UNL1       -0.1908
     23 C         138.7127  137.9724  164.8747 C.3     1  UNL1        0.1325
     24 C         139.0914  138.7162  166.1209 C.ar    1  UNL1        0.0874
     25 C         138.1301  138.7931  167.2699 C.ar    1  UNL1        0.1157
     26 N         138.5088  139.5370  168.5161 N.ar    1  UNL1       -0.2223
     27 C         139.8488  140.2040  168.6135 C.ar    1  UNL1        0.1865
     28 C         140.8101  140.1271  167.4647 C.ar    1  UNL1        0.1373
     29 N         140.4314  139.3832  166.2183 N.ar    1  UNL1       -0.2429
     30 N         140.2276  140.9478  169.8598 N.ar    1  UNL1       -0.1693
     31 C         141.5320  140.8352  170.5918 C.ar    1  UNL1        0.2273
     32 N         141.4790  141.7527  171.7774 N.ar    1  UNL1       -0.1044
     33 N         140.1417  142.4324  171.7780 N.ar    1  UNL1       -0.0222
     34 N         139.3683  141.9349  170.5930 N.ar    1  UNL1       -0.0371
@<TRIPOS>BOND
     1    13    14    1
     2    14    15   ar
     3     1    15    1
     4     1     2    1
     5     2     3    1
     6     3     4    1
     7     4     5    1
     8     5     6    1
     9     6     7   am
    10     7     8    2
    11     7    23    1
    12    23    24    1
    13    24    25   ar
    14    25    26   ar
    15    26    27   ar
    16    27    30    1
    17    30    31   ar
    18    31    32   ar
    19    32    33   ar
    20    33    34   ar
    21    27    28   ar
    22    28    29   ar
    23     6     9    1
    24    10     9    1
    25    10    11    1
    26    11    12    1
    27    15    16   ar
    28    16    17   ar
    29    17    18   ar
    30    18    19    1
    31    18    20   ar
    32    20    21    1
    33    21    22    3
    34    20    14   ar
    35    12     1    1
    36    10     3    1
    37    29    24   ar
    38    34    30   ar
@<TRIPOS>MOLECULE
*****
 34 38 0 0 0
SMALL
GASTEIGER

@<TRIPOS>ATOM
      1 C         142.5974  140.2589  165.6143 C.3     1  UNL1        0.1531
      2 C         141.5546  139.6625  164.7161 C.3     1  UNL1        0.1067
      3 N         141.8257  139.5124  163.2485 N.3     1  UNL1       -0.2665
      4 C         140.7828  138.9160  162.3503 C.3     1  UNL1        0.0940
      5 C         141.0539  138.7659  160.8827 C.3     1  UNL1        0.1107
      6 N         142.3678  139.2122  160.3132 N.am    1  UNL1       -0.2763
      7 C         142.6389  139.0621  158.8455 C.2     1  UNL1        0.2318
      8 O         143.9528  139.5085  158.2760 O.2     1  UNL1       -0.2744
      9 C         143.4107  139.8087  161.2114 C.3     1  UNL1        0.1119
     10 C         143.1396  139.9588  162.6791 C.3     1  UNL1        0.1075
     11 C         144.1824  140.5552  163.5772 C.3     1  UNL1        0.1601
     12 O         143.9113  140.7053  165.0448 O.3     1  UNL1       -0.3489
     13 C         141.3254  142.7684  166.6558 C.3     1  UNL1        0.0316
     14 C         141.6903  141.6637  167.6027 C.ar    1  UNL1       -0.0117
     15 C         142.3263  140.4090  167.0820 C.ar    1  UNL1        0.0027
     16 C         142.6913  139.3044  168.0289 C.ar    1  UNL1        0.0001
     17 C         142.4202  139.4544  169.4965 C.ar    1  UNL1        0.0301
     18 C         141.7842  140.7092  170.0173 C.ar    1  UNL1        0.1493
     19 F         141.5132  140.8592  171.4849 F       1  UNL1       -0.2035
     20 C         141.4193  141.8138  169.0704 C.ar    1  UNL1        0.0916
     21 C         140.7833  143.0685  169.5912 C.1     1  UNL1        0.1024
     22 N         140.1473  144.3232  170.1119 N.1     1  UNL1       -0.1908
     23 C         141.5961  138.4657  157.9474 C.3     1  UNL1        0.1325
     24 C         141.8948  137.2115  157.1809 C.ar    1  UNL1        0.0874
     25 C         140.9540  136.7450  156.1097 C.ar    1  UNL1        0.1157
     26 N         141.2528  135.4908  155.3432 N.ar    1  UNL1       -0.2223
     27 C         142.4924  134.7030  155.6478 C.ar    1  UNL1        0.1865
     28 C         143.4332  135.1694  156.7189 C.ar    1  UNL1        0.1373
     29 N         143.1344  136.4237  157.4855 N.ar    1  UNL1       -0.2429
     30 N         142.7912  133.4487  154.8813 N.ar    1  UNL1       -0.1693
     31 C         142.2498  133.0919  153.5287 C.ar    1  UNL1        0.2273
     32 N         142.8078  131.7537  153.1442 N.ar    1  UNL1       -0.1044
     33 N         143.6942  131.2834  154.2593 N.ar    1  UNL1       -0.0222
     34 N         143.6839  132.3310  155.3328 N.ar    1  UNL1       -0.0371
@<TRIPOS>BOND
     1    13    14    1
     2    14    15   ar
     3     1    15    1
     4     1     2    1
     5     2     3    1
     6     3     4    1
     7     4     5    1
     8     5     6    1
     9     6     7   am
    10     7     8    2
    11     7    23    1
    12    23    24    1
    13    24    25   ar
    14    25    26   ar
    15    26    27   ar
    16    27    30    1
    17    30    31   ar
    18    31    32   ar
    19    32    33   ar
    20    33    34   ar
    21    27    28   ar
    22    28    29   ar
    23     6     9    1
    24    10     9    1
    25    10    11    1
    26    11    12    1
    27    15    16   ar
    28    16    17   ar
    29    17    18   ar
    30    18    19    1
    31    18    20   ar
    32    20    21    1
    33    21    22    3
    34    20    14   ar
    35    12     1    1
    36    10     3    1
    37    29    24   ar
    38    34    30   ar
@<TRIPOS>MOLECULE
*****
 34 38 0 0 0
SMALL
GASTEIGER

@<TRIPOS>ATOM
      1 C         142.3239  142.4088  165.8406 C.3     1  UNL1        0.1531
      2 C         143.2648  141.6355  164.9651 C.3     1  UNL1        0.1067
      3 N         143.3816  141.9723  163.5081 N.3     1  UNL1       -0.2665
      4 C         144.3225  141.1989  162.6325 C.3     1  UNL1        0.0940
      5 C         144.4393  141.5358  161.1756 C.3     1  UNL1        0.1107
      6 N         143.6152  142.6461  160.5941 N.am    1  UNL1       -0.2763
      7 C         143.7320  142.9829  159.1370 C.2     1  UNL1        0.2318
      8 O         142.9079  144.0932  158.5555 O.2     1  UNL1       -0.2744
      9 C         142.6743  143.4195  161.4696 C.3     1  UNL1        0.1119
     10 C         142.5575  143.0826  162.9267 C.3     1  UNL1        0.1075
     11 C         141.6166  143.8560  163.8021 C.3     1  UNL1        0.1601
     12 O         141.4998  143.5191  165.2591 O.3     1  UNL1       -0.3489
     13 C         139.8071  141.1622  166.8949 C.3     1  UNL1        0.0316
     14 C         140.9487  141.4487  167.8248 C.ar    1  UNL1       -0.0117
     15 C         142.2071  142.0720  167.2977 C.ar    1  UNL1        0.0027
     16 C         143.3487  142.3585  168.2275 C.ar    1  UNL1        0.0001
     17 C         143.2320  142.0216  169.6845 C.ar    1  UNL1        0.0301
     18 C         141.9735  141.3983  170.2117 C.ar    1  UNL1        0.1493
     19 F         141.8568  141.0615  171.6687 F       1  UNL1       -0.2035
     20 C         140.8319  141.1118  169.2819 C.ar    1  UNL1        0.0916
     21 C         139.5735  140.4885  169.8090 C.1     1  UNL1        0.1024
     22 N         138.3151  139.8652  170.3361 N.1     1  UNL1       -0.1908
     23 C         144.6729  142.2095  158.2615 C.3     1  UNL1        0.1325
     24 C         144.2551  140.8831  157.6994 C.ar    1  UNL1        0.0874
     25 C         144.9496  140.3283  156.4911 C.ar    1  UNL1        0.1157
     26 N         144.5318  139.0019  155.9290 N.ar    1  UNL1       -0.2223
     27 C         143.4195  138.2303  156.5750 C.ar    1  UNL1        0.1865
     28 C         142.7250  138.7851  157.7832 C.ar    1  UNL1        0.1373
     29 N         143.1427  140.1115  158.3454 N.ar    1  UNL1       -0.2429
     30 N         143.0017  136.9039  156.0129 N.ar    1  UNL1       -0.1693
     31 C         143.9062  135.8937  155.3714 C.ar    1  UNL1        0.2273
     32 N         143.0695  134.7202  154.9555 N.ar    1  UNL1       -0.1044
     33 N         141.6479  135.0051  155.3400 N.ar    1  UNL1       -0.0222
     34 N         141.6059  136.3546  155.9935 N.ar    1  UNL1       -0.0371
@<TRIPOS>BOND
     1    13    14    1
     2    14    15   ar
     3     1    15    1
     4     1     2    1
     5     2     3    1
     6     3     4    1
     7     4     5    1
     8     5     6    1
     9     6     7   am
    10     7     8    2
    11     7    23    1
    12    23    24    1
    13    24    25   ar
    14    25    26   ar
    15    26    27   ar
    16    27    30    1
    17    30    31   ar
    18    31    32   ar
    19    32    33   ar
    20    33    34   ar
    21    27    28   ar
    22    28    29   ar
    23     6     9    1
    24    10     9    1
    25    10    11    1
    26    11    12    1
    27    15    16   ar
    28    16    17   ar
    29    17    18   ar
    30    18    19    1
    31    18    20   ar
    32    20    21    1
    33    21    22    3
    34    20    14   ar
    35    12     1    1
    36    10     3    1
    37    29    24   ar
    38    34    30   ar
@<TRIPOS>MOLECULE
*****
 34 38 0 0 0
SMALL
GASTEIGER

@<TRIPOS>ATOM
      1 C         142.4976  140.6329  164.3201 C.3     1  UNL1        0.1531
      2 C         141.6111  139.8077  163.4352 C.3     1  UNL1        0.1067
      3 N         141.9800  139.5899  161.9977 N.3     1  UNL1       -0.2665
      4 C         141.0934  138.7647  161.1126 C.3     1  UNL1        0.0940
      5 C         141.4623  138.5468  159.6751 C.3     1  UNL1        0.1107
      6 N         142.7176  139.1541  159.1226 N.am    1  UNL1       -0.2763
      7 C         143.0864  138.9363  157.6850 C.2     1  UNL1        0.2318
      8 O         144.3417  139.5436  157.1324 O.2     1  UNL1       -0.2744
      9 C         143.6041  139.9793  160.0075 C.3     1  UNL1        0.1119
     10 C         143.2353  140.1972  161.4451 C.3     1  UNL1        0.1075
     11 C         144.1218  141.0224  162.3301 C.3     1  UNL1        0.1601
     12 O         143.7529  141.2402  163.7676 O.3     1  UNL1       -0.3489
     13 C         143.3571  138.6550  166.4056 C.3     1  UNL1        0.0316
     14 C         142.5585  139.8619  166.8004 C.ar    1  UNL1       -0.0117
     15 C         142.1288  140.8508  165.7577 C.ar    1  UNL1        0.0027
     16 C         141.3302  142.0576  166.1525 C.ar    1  UNL1        0.0001
     17 C         140.9614  142.2756  167.5900 C.ar    1  UNL1        0.0301
     18 C         141.3912  141.2866  168.6328 C.ar    1  UNL1        0.1493
     19 F         141.0224  141.5045  170.0703 F       1  UNL1       -0.2035
     20 C         142.1897  140.0798  168.2380 C.ar    1  UNL1        0.0916
     21 C         142.6195  139.0908  169.2807 C.1     1  UNL1        0.1024
     22 N         143.0492  138.1019  170.3235 N.1     1  UNL1       -0.1908
     23 C         142.1999  138.1111  156.8001 C.3     1  UNL1        0.1325
     24 C         142.6041  136.7163  156.4246 C.ar    1  UNL1        0.0874
     25 C         142.6066  136.2982  154.9840 C.ar    1  UNL1        0.1157
     26 N         143.0108  134.9034  154.6085 N.ar    1  UNL1       -0.2223
     27 C         143.4126  133.9265  155.6736 C.ar    1  UNL1        0.1865
     28 C         143.4102  134.3445  157.1141 C.ar    1  UNL1        0.1373
     29 N         143.0059  135.7394  157.4897 N.ar    1  UNL1       -0.2429
     30 N         143.8168  132.5317  155.2981 N.ar    1  UNL1       -0.1693
     31 C         143.3168  131.7572  154.1149 C.ar    1  UNL1        0.2273
     32 N         143.9831  130.4132  154.1254 N.ar    1  UNL1       -0.1044
     33 N         144.8949  130.3572  155.3152 N.ar    1  UNL1       -0.0222
     34 N         144.7922  131.6665  156.0399 N.ar    1  UNL1       -0.0371
@<TRIPOS>BOND
     1    13    14    1
     2    14    15   ar
     3     1    15    1
     4     1     2    1
     5     2     3    1
     6     3     4    1
     7     4     5    1
     8     5     6    1
     9     6     7   am
    10     7     8    2
    11     7    23    1
    12    23    24    1
    13    24    25   ar
    14    25    26   ar
    15    26    27   ar
    16    27    30    1
    17    30    31   ar
    18    31    32   ar
    19    32    33   ar
    20    33    34   ar
    21    27    28   ar
    22    28    29   ar
    23     6     9    1
    24    10     9    1
    25    10    11    1
    26    11    12    1
    27    15    16   ar
    28    16    17   ar
    29    17    18   ar
    30    18    19    1
    31    18    20   ar
    32    20    21    1
    33    21    22    3
    34    20    14   ar
    35    12     1    1
    36    10     3    1
    37    29    24   ar
    38    34    30   ar
@<TRIPOS>MOLECULE
*****
 34 38 0 0 0
SMALL
GASTEIGER

@<TRIPOS>ATOM
      1 C         142.4815  140.9687  165.7266 C.3     1  UNL1        0.1531
      2 C         142.7031  142.0871  164.7520 C.3     1  UNL1        0.1067
      3 N         143.0191  141.7808  163.3180 N.3     1  UNL1       -0.2665
      4 C         143.2407  142.8993  162.3434 C.3     1  UNL1        0.0940
      5 C         143.5568  142.5929  160.9094 C.3     1  UNL1        0.1107
      6 N         143.6512  141.1681  160.4501 N.am    1  UNL1       -0.2763
      7 C         143.9673  140.8618  159.0161 C.2     1  UNL1        0.2318
      8 O         144.0618  139.4370  158.5567 O.2     1  UNL1       -0.2744
      9 C         143.4296  140.0496  161.4247 C.3     1  UNL1        0.1119
     10 C         143.1136  140.3560  162.8587 C.3     1  UNL1        0.1075
     11 C         142.8920  139.2375  163.8333 C.3     1  UNL1        0.1601
     12 O         142.5759  139.5439  165.2673 O.3     1  UNL1       -0.3489
     13 C         139.9771  139.8869  166.9748 C.3     1  UNL1        0.0316
     14 C         140.9133  140.7341  167.7847 C.ar    1  UNL1       -0.0117
     15 C         142.1654  141.2750  167.1606 C.ar    1  UNL1        0.0027
     16 C         143.1015  142.1222  167.9705 C.ar    1  UNL1        0.0001
     17 C         142.7855  142.4286  169.4044 C.ar    1  UNL1        0.0301
     18 C         141.5333  141.8877  170.0286 C.ar    1  UNL1        0.1493
     19 F         141.2173  142.1940  171.4625 F       1  UNL1       -0.2035
     20 C         140.5972  141.0404  169.2187 C.ar    1  UNL1        0.0916
     21 C         139.3450  140.4995  169.8428 C.1     1  UNL1        0.1024
     22 N         138.0929  139.9587  170.4669 N.1     1  UNL1       -0.1908
     23 C         144.1889  141.9802  158.0415 C.3     1  UNL1        0.1325
     24 C         145.4150  141.9902  157.1775 C.ar    1  UNL1        0.0874
     25 C         146.6295  142.7585  157.6078 C.ar    1  UNL1        0.1157
     26 N         147.8556  142.7685  156.7439 N.ar    1  UNL1       -0.2223
     27 C         147.8674  142.0103  155.4497 C.ar    1  UNL1        0.1865
     28 C         146.6531  141.2421  155.0194 C.ar    1  UNL1        0.1373
     29 N         145.4269  141.2320  155.8833 N.ar    1  UNL1       -0.2429
     30 N         149.0936  142.0203  154.5857 N.ar    1  UNL1       -0.1693
     31 C         150.4129  141.3898  154.9201 C.ar    1  UNL1        0.2273
     32 N         151.3505  141.6425  153.7767 N.ar    1  UNL1       -0.1044
     33 N         150.6105  142.4291  152.7356 N.ar    1  UNL1       -0.0222
     34 N         149.2157  142.6626  153.2356 N.ar    1  UNL1       -0.0371
@<TRIPOS>BOND
     1    13    14    1
     2    14    15   ar
     3     1    15    1
     4     1     2    1
     5     2     3    1
     6     3     4    1
     7     4     5    1
     8     5     6    1
     9     6     7   am
    10     7     8    2
    11     7    23    1
    12    23    24    1
    13    24    25   ar
    14    25    26   ar
    15    26    27   ar
    16    27    30    1
    17    30    31   ar
    18    31    32   ar
    19    32    33   ar
    20    33    34   ar
    21    27    28   ar
    22    28    29   ar
    23     6     9    1
    24    10     9    1
    25    10    11    1
    26    11    12    1
    27    15    16   ar
    28    16    17   ar
    29    17    18   ar
    30    18    19    1
    31    18    20   ar
    32    20    21    1
    33    21    22    3
    34    20    14   ar
    35    12     1    1
    36    10     3    1
    37    29    24   ar
    38    34    30   ar
@<TRIPOS>MOLECULE
*****
 34 38 0 0 0
SMALL
GASTEIGER

@<TRIPOS>ATOM
      1 C         140.4632  138.8145  158.2144 C.3     1  UNL1        0.1531
      2 C         139.9380  138.3569  159.5428 C.3     1  UNL1        0.1067
      3 N         140.8032  138.4520  160.7644 N.3     1  UNL1       -0.2665
      4 C         140.2780  137.9944  162.0929 C.3     1  UNL1        0.0940
      5 C         141.1433  138.0895  163.3145 C.3     1  UNL1        0.1107
      6 N         142.5337  138.6420  163.2077 N.am    1  UNL1       -0.2763
      7 C         143.3989  138.7371  164.4294 C.2     1  UNL1        0.2318
      8 O         144.7893  139.2897  164.3225 O.2     1  UNL1       -0.2744
      9 C         143.0589  139.0996  161.8792 C.3     1  UNL1        0.1119
     10 C         142.1936  139.0046  160.6576 C.3     1  UNL1        0.1075
     11 C         142.7188  139.4621  159.3291 C.3     1  UNL1        0.1601
     12 O         141.8536  139.3670  158.1075 O.3     1  UNL1       -0.3489
     13 C         138.8199  141.1719  157.3530 C.3     1  UNL1        0.0316
     14 C         138.7763  139.8981  156.5620 C.ar    1  UNL1       -0.0117
     15 C         139.5980  138.7194  156.9927 C.ar    1  UNL1        0.0027
     16 C         139.5544  137.4457  156.2018 C.ar    1  UNL1        0.0001
     17 C         138.6892  137.3506  154.9802 C.ar    1  UNL1        0.0301
     18 C         137.8676  138.5293  154.5494 C.ar    1  UNL1        0.1493
     19 F         137.0024  138.4343  153.3278 F       1  UNL1       -0.2035
     20 C         137.9111  139.8031  155.3403 C.ar    1  UNL1        0.0916
     21 C         137.0895  140.9818  154.9097 C.1     1  UNL1        0.1024
     22 N         136.2679  142.1605  154.4790 N.1     1  UNL1       -0.1908
     23 C         142.8737  138.2795  165.7578 C.3     1  UNL1        0.1325
     24 C         142.2515  139.2679  166.6990 C.ar    1  UNL1        0.0874
     25 C         140.8665  139.7821  166.4388 C.ar    1  UNL1        0.1157
     26 N         140.2443  140.7704  167.3800 N.ar    1  UNL1       -0.2223
     27 C         141.0069  141.2447  168.5814 C.ar    1  UNL1        0.1865
     28 C         142.3918  140.7306  168.8416 C.ar    1  UNL1        0.1373
     29 N         143.0141  139.7422  167.9004 N.ar    1  UNL1       -0.2429
     30 N         140.3847  142.2331  169.5226 N.ar    1  UNL1       -0.1693
     31 C         140.5970  143.7179  169.5089 C.ar    1  UNL1        0.2273
     32 N         139.7843  144.3127  170.6206 N.ar    1  UNL1       -0.1044
     33 N         139.0698  143.1954  171.3215 N.ar    1  UNL1       -0.0222
     34 N         139.4408  141.9102  170.6429 N.ar    1  UNL1       -0.0371
@<TRIPOS>BOND
     1    13    14    1
     2    14    15   ar
     3     1    15    1
     4     1     2    1
     5     2     3    1
     6     3     4    1
     7     4     5    1
     8     5     6    1
     9     6     7   am
    10     7     8    2
    11     7    23    1
    12    23    24    1
    13    24    25   ar
    14    25    26   ar
    15    26    27   ar
    16    27    30    1
    17    30    31   ar
    18    31    32   ar
    19    32    33   ar
    20    33    34   ar
    21    27    28   ar
    22    28    29   ar
    23     6     9    1
    24    10     9    1
    25    10    11    1
    26    11    12    1
    27    15    16   ar
    28    16    17   ar
    29    17    18   ar
    30    18    19    1
    31    18    20   ar
    32    20    21    1
    33    21    22    3
    34    20    14   ar
    35    12     1    1
    36    10     3    1
    37    29    24   ar
    38    34    30   ar
@<TRIPOS>MOLECULE
*****
 34 38 0 0 0
SMALL
GASTEIGER

@<TRIPOS>ATOM
      1 C         141.2201  140.2726  164.5584 C.3     1  UNL1        0.1531
      2 C         142.3066  139.4834  163.8901 C.3     1  UNL1        0.1067
      3 N         142.1810  139.1108  162.4426 N.3     1  UNL1       -0.2665
      4 C         143.2676  138.3216  161.7743 C.3     1  UNL1        0.0940
      5 C         143.1420  137.9489  160.3268 C.3     1  UNL1        0.1107
      6 N         141.9298  138.3654  159.5475 N.am    1  UNL1       -0.2763
      7 C         141.8043  137.9927  158.1000 C.2     1  UNL1        0.2318
      8 O         140.5921  138.4092  157.3207 O.2     1  UNL1       -0.2744
      9 C         140.8433  139.1546  160.2158 C.3     1  UNL1        0.1119
     10 C         140.9689  139.5273  161.6634 C.3     1  UNL1        0.1075
     11 C         139.8823  140.3165  162.3316 C.3     1  UNL1        0.1601
     12 O         140.0079  140.6891  163.7791 O.3     1  UNL1       -0.3489
     13 C         139.0553  139.5202  166.4943 C.3     1  UNL1        0.0316
     14 C         140.2633  140.2691  166.9739 C.ar    1  UNL1       -0.0117
     15 C         141.3456  140.6453  166.0060 C.ar    1  UNL1        0.0027
     16 C         142.5536  141.3942  166.4855 C.ar    1  UNL1        0.0001
     17 C         142.6792  141.7669  167.9330 C.ar    1  UNL1        0.0301
     18 C         141.5968  141.3907  168.9010 C.ar    1  UNL1        0.1493
     19 F         141.7224  141.7634  170.3485 F       1  UNL1       -0.2035
     20 C         140.3888  140.6418  168.4215 C.ar    1  UNL1        0.0916
     21 C         139.3065  140.2656  169.3894 C.1     1  UNL1        0.1024
     22 N         138.2241  139.8894  170.3573 N.1     1  UNL1       -0.1908
     23 C         142.8908  137.2036  157.4317 C.3     1  UNL1        0.1325
     24 C         142.6213  135.8048  156.9620 C.ar    1  UNL1        0.0874
     25 C         143.2424  134.6410  157.6762 C.ar    1  UNL1        0.1157
     26 N         142.9728  133.2422  157.2065 N.ar    1  UNL1       -0.2223
     27 C         142.0822  133.0071  156.0227 C.ar    1  UNL1        0.1865
     28 C         141.4611  134.1707  155.3085 C.ar    1  UNL1        0.1373
     29 N         141.7307  135.5696  155.7782 N.ar    1  UNL1       -0.2429
     30 N         141.8127  131.6083  155.5530 N.ar    1  UNL1       -0.1693
     31 C         142.6162  130.3907  155.9022 C.ar    1  UNL1        0.2273
     32 N         141.9924  129.2113  155.2166 N.ar    1  UNL1       -0.1044
     33 N         140.8033  129.7000  154.4436 N.ar    1  UNL1       -0.0222
     34 N         140.6923  131.1813  154.6515 N.ar    1  UNL1       -0.0371
@<TRIPOS>BOND
     1    13    14    1
     2    14    15   ar
     3     1    15    1
     4     1     2    1
     5     2     3    1
     6     3     4    1
     7     4     5    1
     8     5     6    1
     9     6     7   am
    10     7     8    2
    11     7    23    1
    12    23    24    1
    13    24    25   ar
    14    25    26   ar
    15    26    27   ar
    16    27    30    1
    17    30    31   ar
    18    31    32   ar
    19    32    33   ar
    20    33    34   ar
    21    27    28   ar
    22    28    29   ar
    23     6     9    1
    24    10     9    1
    25    10    11    1
    26    11    12    1
    27    15    16   ar
    28    16    17   ar
    29    17    18   ar
    30    18    19    1
    31    18    20   ar
    32    20    21    1
    33    21    22    3
    34    20    14   ar
    35    12     1    1
    36    10     3    1
    37    29    24   ar
    38    34    30   ar
@<TRIPOS>MOLECULE
*****
 34 38 0 0 0
SMALL
GASTEIGER

@<TRIPOS>ATOM
      1 C         140.7679  140.3991  165.4619 C.3     1  UNL1        0.1531
      2 C         141.8471  140.2113  164.4372 C.3     1  UNL1        0.1067
      3 N         141.4844  139.9488  163.0056 N.3     1  UNL1       -0.2665
      4 C         142.5636  139.7610  161.9808 C.3     1  UNL1        0.0940
      5 C         142.2010  139.4985  160.5492 C.3     1  UNL1        0.1107
      6 N         140.7591  139.4237  160.1423 N.am    1  UNL1       -0.2763
      7 C         140.3965  139.1611  158.7106 C.2     1  UNL1        0.2318
      8 O         138.9547  139.0864  158.3037 O.2     1  UNL1       -0.2744
      9 C         139.6800  139.6115  161.1670 C.3     1  UNL1        0.1119
     10 C         140.0426  139.8740  162.5987 C.3     1  UNL1        0.1075
     11 C         138.9635  140.0618  163.6234 C.3     1  UNL1        0.1601
     12 O         139.3261  140.3243  165.0550 O.3     1  UNL1       -0.3489
     13 C         139.9409  142.9682  166.7719 C.3     1  UNL1        0.0316
     14 C         140.7171  141.9462  167.5485 C.ar    1  UNL1       -0.0117
     15 C         141.1306  140.6617  166.8936 C.ar    1  UNL1        0.0027
     16 C         141.9067  139.6397  167.6702 C.ar    1  UNL1        0.0001
     17 C         142.2694  139.9022  169.1018 C.ar    1  UNL1        0.0301
     18 C         141.8558  141.1867  169.7568 C.ar    1  UNL1        0.1493
     19 F         142.2185  141.4492  171.1884 F       1  UNL1       -0.2035
     20 C         141.0797  142.2087  168.9802 C.ar    1  UNL1        0.0916
     21 C         140.6662  143.4932  169.6352 C.1     1  UNL1        0.1024
     22 N         140.2527  144.7777  170.2902 N.1     1  UNL1       -0.1908
     23 C         141.4757  138.9734  157.6859 C.3     1  UNL1        0.1325
     24 C         141.7705  137.6039  157.1496 C.ar    1  UNL1        0.0874
     25 C         140.9014  137.0148  156.0782 C.ar    1  UNL1        0.1157
     26 N         141.1963  135.6454  155.5419 N.ar    1  UNL1       -0.2223
     27 C         142.3602  134.8650  156.0769 C.ar    1  UNL1        0.1865
     28 C         143.2293  135.4540  157.1482 C.ar    1  UNL1        0.1373
     29 N         142.9345  136.8235  157.6846 N.ar    1  UNL1       -0.2429
     30 N         142.6551  133.4956  155.5406 N.ar    1  UNL1       -0.1693
     31 C         142.9483  132.2727  156.3584 C.ar    1  UNL1        0.2273
     32 N         143.1829  131.1298  155.4155 N.ar    1  UNL1       -0.1044
     33 N         143.0348  131.6464  154.0150 N.ar    1  UNL1       -0.0222
     34 N         142.7085  133.1085  154.0923 N.ar    1  UNL1       -0.0371
@<TRIPOS>BOND
     1    13    14    1
     2    14    15   ar
     3     1    15    1
     4     1     2    1
     5     2     3    1
     6     3     4    1
     7     4     5    1
     8     5     6    1
     9     6     7   am
    10     7     8    2
    11     7    23    1
    12    23    24    1
    13    24    25   ar
    14    25    26   ar
    15    26    27   ar
    16    27    30    1
    17    30    31   ar
    18    31    32   ar
    19    32    33   ar
    20    33    34   ar
    21    27    28   ar
    22    28    29   ar
    23     6     9    1
    24    10     9    1
    25    10    11    1
    26    11    12    1
    27    15    16   ar
    28    16    17   ar
    29    17    18   ar
    30    18    19    1
    31    18    20   ar
    32    20    21    1
    33    21    22    3
    34    20    14   ar
    35    12     1    1
    36    10     3    1
    37    29    24   ar
    38    34    30   ar
@<TRIPOS>MOLECULE
*****
 34 38 0 0 0
SMALL
GASTEIGER

@<TRIPOS>ATOM
      1 C         141.7163  140.3829  163.3072 C.3     1  UNL1        0.1531
      2 C         142.7011  139.9243  162.2730 C.3     1  UNL1        0.1067
      3 N         142.2137  139.3574  160.9726 N.3     1  UNL1       -0.2665
      4 C         143.1986  138.8988  159.9382 C.3     1  UNL1        0.0940
      5 C         142.7112  138.3319  158.6378 C.3     1  UNL1        0.1107
      6 N         141.2390  138.2236  158.3717 N.am    1  UNL1       -0.2763
      7 C         140.7516  137.6567  157.0712 C.2     1  UNL1        0.2318
      8 O         139.2794  137.5485  156.8051 O.2     1  UNL1       -0.2744
      9 C         140.2541  138.6822  159.4059 C.3     1  UNL1        0.1119
     10 C         140.7415  139.2492  160.7064 C.3     1  UNL1        0.1075
     11 C         139.7567  139.7078  161.7407 C.3     1  UNL1        0.1601
     12 O         140.2440  140.2746  163.0411 O.3     1  UNL1       -0.3489
     13 C         141.7195  138.6813  165.7780 C.3     1  UNL1        0.0316
     14 C         142.2052  140.0990  165.8430 C.ar    1  UNL1       -0.0117
     15 C         142.2036  140.9498  164.6077 C.ar    1  UNL1        0.0027
     16 C         142.6893  142.3675  164.6727 C.ar    1  UNL1        0.0001
     17 C         143.1767  142.9344  165.9731 C.ar    1  UNL1        0.0301
     18 C         143.1783  142.0836  167.2086 C.ar    1  UNL1        0.1493
     19 F         143.6657  142.6505  168.5090 F       1  UNL1       -0.2035
     20 C         142.6926  140.6659  167.1435 C.ar    1  UNL1        0.0916
     21 C         142.6942  139.8152  168.3789 C.1     1  UNL1        0.1024
     22 N         142.6959  138.9644  169.6142 N.1     1  UNL1       -0.1908
     23 C         141.7365  137.1981  156.0370 C.3     1  UNL1        0.1325
     24 C         142.1555  135.7588  155.9866 C.ar    1  UNL1        0.0874
     25 C         143.4176  135.3207  156.6688 C.ar    1  UNL1        0.1157
     26 N         143.8366  133.8813  156.6184 N.ar    1  UNL1       -0.2223
     27 C         142.9936  132.8800  155.8858 C.ar    1  UNL1        0.1865
     28 C         141.7317  133.3180  155.2036 C.ar    1  UNL1        0.1373
     29 N         141.3125  134.7574  155.2540 N.ar    1  UNL1       -0.2429
     30 N         143.4127  131.4406  155.8354 N.ar    1  UNL1       -0.1693
     31 C         142.4965  130.2536  155.8762 C.ar    1  UNL1        0.2273
     32 N         143.3391  129.0148  155.8013 N.ar    1  UNL1       -0.1044
     33 N         144.7761  129.4363  155.7143 N.ar    1  UNL1       -0.0222
     34 N         144.8216  130.9354  155.7354 N.ar    1  UNL1       -0.0371
@<TRIPOS>BOND
     1    13    14    1
     2    14    15   ar
     3     1    15    1
     4     1     2    1
     5     2     3    1
     6     3     4    1
     7     4     5    1
     8     5     6    1
     9     6     7   am
    10     7     8    2
    11     7    23    1
    12    23    24    1
    13    24    25   ar
    14    25    26   ar
    15    26    27   ar
    16    27    30    1
    17    30    31   ar
    18    31    32   ar
    19    32    33   ar
    20    33    34   ar
    21    27    28   ar
    22    28    29   ar
    23     6     9    1
    24    10     9    1
    25    10    11    1
    26    11    12    1
    27    15    16   ar
    28    16    17   ar
    29    17    18   ar
    30    18    19    1
    31    18    20   ar
    32    20    21    1
    33    21    22    3
    34    20    14   ar
    35    12     1    1
    36    10     3    1
    37    29    24   ar
    38    34    30   ar
