@<TRIPOS>MOLECULE
*****
 32 36 0 0 0
SMALL
GASTEIGER

@<TRIPOS>ATOM
      1 N         139.8968  137.8131  164.1291 N.3     1  UNL1       -0.2703
      2 C         139.4766  137.8882  162.6911 C.3     1  UNL1        0.0727
      3 C         140.5043  138.1017  161.6196 C.3     1  UNL1        0.0260
      4 C         141.9523  138.2401  161.9861 C.3     1  UNL1        0.0737
      5 C         142.3725  138.1649  163.4240 C.3     1  UNL1        0.0260
      6 C         141.3448  137.9514  164.4955 C.3     1  UNL1        0.0727
      7 C         143.4290  138.3951  162.1990 C.3     1  UNL1        0.0306
      8 C         144.0731  138.5868  160.8579 C.3     1  UNL1        0.1001
      9 N         142.9945  138.5503  159.8162 N.am    1  UNL1       -0.2438
     10 C         141.6838  138.3360  160.5133 C.2     1  UNL1        0.2296
     11 O         140.3404  138.2353  159.8538 O.2     1  UNL1       -0.2745
     12 C         143.1919  138.7016  158.3370 C.ar    1  UNL1        0.1407
     13 C         142.6014  137.6950  157.3947 C.ar    1  UNL1        0.0554
     14 C         142.7988  137.8462  155.9155 C.ar    1  UNL1        0.1036
     15 N         143.5868  139.0042  155.3785 N.ar    1  UNL1       -0.2223
     16 C         144.1774  140.0109  156.3208 C.ar    1  UNL1        0.2001
     17 N         143.9799  139.8595  157.8000 N.ar    1  UNL1       -0.2086
     18 C         138.8691  137.5996  165.2007 C.3     1  UNL1        0.1063
     19 C         138.1630  138.7756  165.8076 C.3     1  UNL1        0.1483
     20 O         137.3191  138.5925  167.0341 O.3     1  UNL1       -0.3786
     21 H         136.9371  139.4454  167.2940 H       1  UNL1        0.2108
     22 C         140.0851  140.7653  166.9680 C.3     1  UNL1        0.0306
     23 C         139.2618  141.1296  165.7682 C.ar    1  UNL1       -0.0238
     24 C         138.3007  140.1347  165.1880 C.ar    1  UNL1        0.0015
     25 C         137.4774  140.4990  163.9883 C.ar    1  UNL1       -0.0020
     26 C         137.6151  141.8580  163.3687 C.ar    1  UNL1        0.0060
     27 C         138.5761  142.8529  163.9489 C.ar    1  UNL1        0.0748
     28 C         139.3995  142.4886  165.1486 C.ar    1  UNL1        0.0233
     29 C         140.2572  143.6686  165.4977 C.3     1  UNL1        0.2352
     30 O         139.9640  144.7621  164.5137 O.3     1  UNL1       -0.4404
     31 C         138.9250  144.2580  163.5565 C.2     1  UNL1        0.3413
     32 O         138.3380  145.0243  162.4084 O.2     1  UNL1       -0.2449
@<TRIPOS>BOND
     1    22    23    1
     2    23    24   ar
     3    24    19    1
     4    19    20    1
     5    19    18    1
     6    18     1    1
     7     1     2    1
     8     2     3    1
     9     3     4    1
    10     4     5    1
    11     5     6    1
    12     4     7    1
    13     7     8    1
    14     8     9    1
    15     9    12    1
    16    12    13   ar
    17    13    14   ar
    18    14    15   ar
    19    15    16   ar
    20    16    17   ar
    21     9    10   am
    22    10    11    2
    23    24    25   ar
    24    25    26   ar
    25    26    27   ar
    26    27    28   ar
    27    28    29    1
    28    29    30    1
    29    30    31    1
    30    31    32    2
    31    28    23   ar
    32     6     1    1
    33    17    12   ar
    34    31    27    1
    35    10     4    1
    36    20    21    1
@<TRIPOS>MOLECULE
*****
 32 36 0 0 0
SMALL
GASTEIGER

@<TRIPOS>ATOM
      1 N         138.5774  139.2660  165.1913 N.3     1  UNL1       -0.2703
      2 C         138.0618  140.4665  164.4545 C.3     1  UNL1        0.0727
      3 C         138.0712  140.4872  162.9548 C.3     1  UNL1        0.0260
      4 C         138.5963  139.3073  162.1917 C.3     1  UNL1        0.0737
      5 C         139.1118  138.1068  162.9284 C.3     1  UNL1        0.0260
      6 C         139.1024  138.0861  164.4282 C.3     1  UNL1        0.0727
      7 C         139.0879  138.2076  161.2978 C.3     1  UNL1        0.0306
      8 C         138.9112  138.6520  159.8760 C.3     1  UNL1        0.1001
      9 N         138.3103  140.0264  159.8912 N.am    1  UNL1       -0.2438
     10 C         138.1157  140.4314  161.3223 C.2     1  UNL1        0.2296
     11 O         137.5414  141.7320  161.8003 O.2     1  UNL1       -0.2745
     12 C         137.9648  140.8509  158.6868 C.ar    1  UNL1        0.1407
     13 C         138.6302  142.1777  158.4703 C.ar    1  UNL1        0.0554
     14 C         138.2846  143.0023  157.2658 C.ar    1  UNL1        0.1036
     15 N         137.2738  142.5000  156.2779 N.ar    1  UNL1       -0.2223
     16 C         136.6084  141.1732  156.4944 C.ar    1  UNL1        0.2001
     17 N         136.9540  140.3487  157.6989 N.ar    1  UNL1       -0.2086
     18 C         138.5680  139.2452  166.6912 C.3     1  UNL1        0.1063
     19 C         139.7568  139.7473  167.4556 C.3     1  UNL1        0.1483
     20 O         139.7043  139.8336  168.9522 O.3     1  UNL1       -0.3786
     21 H         140.5485  140.1752  169.2862 H       1  UNL1        0.2108
     22 C         140.1278  142.6094  166.6367 C.3     1  UNL1        0.0306
     23 C         141.1838  141.5941  166.3141 C.ar    1  UNL1       -0.0238
     24 C         140.9983  140.1631  166.7235 C.ar    1  UNL1        0.0015
     25 C         142.0543  139.1478  166.4009 C.ar    1  UNL1       -0.0020
     26 C         143.2957  139.5635  165.6689 C.ar    1  UNL1        0.0060
     27 C         143.4812  140.9945  165.2594 C.ar    1  UNL1        0.0748
     28 C         142.4252  142.0098  165.5820 C.ar    1  UNL1        0.0233
     29 C         142.8824  143.3376  165.0548 C.3     1  UNL1        0.2352
     30 O         144.2210  143.1430  164.4064 O.3     1  UNL1       -0.4404
     31 C         144.5910  141.6949  164.5329 C.2     1  UNL1        0.3413
     32 O         145.8499  141.0587  164.0224 O.2     1  UNL1       -0.2449
@<TRIPOS>BOND
     1    22    23    1
     2    23    24   ar
     3    24    19    1
     4    19    20    1
     5    19    18    1
     6    18     1    1
     7     1     2    1
     8     2     3    1
     9     3     4    1
    10     4     5    1
    11     5     6    1
    12     4     7    1
    13     7     8    1
    14     8     9    1
    15     9    12    1
    16    12    13   ar
    17    13    14   ar
    18    14    15   ar
    19    15    16   ar
    20    16    17   ar
    21     9    10   am
    22    10    11    2
    23    24    25   ar
    24    25    26   ar
    25    26    27   ar
    26    27    28   ar
    27    28    29    1
    28    29    30    1
    29    30    31    1
    30    31    32    2
    31    28    23   ar
    32     6     1    1
    33    17    12   ar
    34    31    27    1
    35    10     4    1
    36    20    21    1
@<TRIPOS>MOLECULE
*****
 32 36 0 0 0
SMALL
GASTEIGER

@<TRIPOS>ATOM
      1 N         138.5642  141.2580  164.0662 N.3     1  UNL1       -0.2703
      2 C         138.9788  141.0388  162.6414 C.3     1  UNL1        0.0727
      3 C         139.3453  142.2096  161.7784 C.3     1  UNL1        0.0260
      4 C         139.2973  143.5996  162.3402 C.3     1  UNL1        0.0737
      5 C         138.8827  143.8188  163.7649 C.3     1  UNL1        0.0260
      6 C         138.5162  142.6480  164.6280 C.3     1  UNL1        0.0727
      7 C         139.2967  145.0395  162.7608 C.3     1  UNL1        0.0306
      8 C         139.7278  145.8659  161.5855 C.3     1  UNL1        0.1001
      9 N         139.9949  144.9368  160.4385 N.am    1  UNL1       -0.2438
     10 C         139.7288  143.5362  160.9049 C.2     1  UNL1        0.2296
     11 O         139.8695  142.2908  160.0809 O.2     1  UNL1       -0.2745
     12 C         140.4484  145.3379  159.0662 C.ar    1  UNL1        0.1407
     13 C         141.7956  144.9080  158.5660 C.ar    1  UNL1        0.0554
     14 C         142.2491  145.3091  157.1936 C.ar    1  UNL1        0.1036
     15 N         141.3554  146.1401  156.3214 N.ar    1  UNL1       -0.2223
     16 C         140.0081  146.5701  156.8216 C.ar    1  UNL1        0.2001
     17 N         139.5547  146.1689  158.1940 N.ar    1  UNL1       -0.2086
     18 C         138.1977  140.0872  164.9293 C.3     1  UNL1        0.1063
     19 C         139.2382  139.4360  165.7913 C.3     1  UNL1        0.1483
     20 O         139.8776  138.1514  165.3542 O.3     1  UNL1       -0.3786
     21 H         140.5229  137.8682  166.0207 H       1  UNL1        0.2108
     22 C         141.6719  141.1857  165.9186 C.3     1  UNL1        0.0306
     23 C         140.8563  140.9442  167.1541 C.ar    1  UNL1       -0.0238
     24 C         139.6395  140.0694  167.0905 C.ar    1  UNL1        0.0015
     25 C         138.8240  139.8280  168.3261 C.ar    1  UNL1       -0.0020
     26 C         139.2252  140.4613  169.6252 C.ar    1  UNL1        0.0060
     27 C         140.4420  141.3361  169.6888 C.ar    1  UNL1        0.0748
     28 C         141.2575  141.5776  168.4533 C.ar    1  UNL1        0.0233
     29 C         142.3980  142.4803  168.8198 C.3     1  UNL1        0.2352
     30 O         142.2874  142.7968  170.2818 O.3     1  UNL1       -0.4404
     31 C         141.0785  142.0896  170.8189 C.2     1  UNL1        0.3413
     32 O         140.5915  142.1291  172.2371 O.2     1  UNL1       -0.2449
@<TRIPOS>BOND
     1    22    23    1
     2    23    24   ar
     3    24    19    1
     4    19    20    1
     5    19    18    1
     6    18     1    1
     7     1     2    1
     8     2     3    1
     9     3     4    1
    10     4     5    1
    11     5     6    1
    12     4     7    1
    13     7     8    1
    14     8     9    1
    15     9    12    1
    16    12    13   ar
    17    13    14   ar
    18    14    15   ar
    19    15    16   ar
    20    16    17   ar
    21     9    10   am
    22    10    11    2
    23    24    25   ar
    24    25    26   ar
    25    26    27   ar
    26    27    28   ar
    27    28    29    1
    28    29    30    1
    29    30    31    1
    30    31    32    2
    31    28    23   ar
    32     6     1    1
    33    17    12   ar
    34    31    27    1
    35    10     4    1
    36    20    21    1
@<TRIPOS>MOLECULE
*****
 32 36 0 0 0
SMALL
GASTEIGER

@<TRIPOS>ATOM
      1 N         144.9743  141.5660  163.2148 N.3     1  UNL1       -0.2703
      2 C         144.7065  141.9094  161.7795 C.3     1  UNL1        0.0727
      3 C         144.1213  140.8800  160.8587 C.3     1  UNL1        0.0260
      4 C         143.8039  139.5073  161.3732 C.3     1  UNL1        0.0737
      5 C         144.0717  139.1638  162.8086 C.3     1  UNL1        0.0260
      6 C         144.6569  140.1932  163.7294 C.3     1  UNL1        0.0727
      7 C         143.4368  138.1006  161.7428 C.3     1  UNL1        0.0306
      8 C         142.8890  137.4278  160.5191 C.3     1  UNL1        0.1001
      9 N         142.9176  138.4187  159.3932 N.am    1  UNL1       -0.2438
     10 C         143.4830  139.7038  159.9211 C.2     1  UNL1        0.2296
     11 O         143.6911  140.9643  159.1351 O.2     1  UNL1       -0.2745
     12 C         142.4610  138.1683  157.9866 C.ar    1  UNL1        0.1407
     13 C         140.9953  138.1042  157.6741 C.ar    1  UNL1        0.0554
     14 C         140.5387  137.8538  156.2674 C.ar    1  UNL1        0.1036
     15 N         141.5477  137.6677  155.1732 N.ar    1  UNL1       -0.2223
     16 C         143.0134  137.7318  155.4857 C.ar    1  UNL1        0.2001
     17 N         143.4700  137.9822  156.8924 N.ar    1  UNL1       -0.2086
     18 C         145.5596  142.5953  164.1357 C.3     1  UNL1        0.1063
     19 C         144.6566  143.4644  164.9599 C.3     1  UNL1        0.1483
     20 O         145.1782  144.1219  166.2031 O.3     1  UNL1       -0.3786
     21 H         144.4712  144.6441  166.6136 H       1  UNL1        0.2108
     22 C         142.4652  141.8551  166.2281 C.3     1  UNL1        0.0306
     23 C         142.1362  142.8713  165.1749 C.ar    1  UNL1       -0.0238
     24 C         143.2318  143.6759  164.5408 C.ar    1  UNL1        0.0015
     25 C         142.9028  144.6921  163.4877 C.ar    1  UNL1       -0.0020
     26 C         141.4782  144.9037  163.0687 C.ar    1  UNL1        0.0060
     27 C         140.3826  144.0990  163.7028 C.ar    1  UNL1        0.0748
     28 C         140.7116  143.0828  164.7559 C.ar    1  UNL1        0.0233
     29 C         139.4294  142.4431  165.1994 C.3     1  UNL1        0.2352
     30 O         138.3079  143.0639  164.4204 O.3     1  UNL1       -0.4404
     31 C         138.8970  144.0873  163.4954 C.2     1  UNL1        0.3413
     32 O         138.1345  144.9480  162.5322 O.2     1  UNL1       -0.2449
@<TRIPOS>BOND
     1    22    23    1
     2    23    24   ar
     3    24    19    1
     4    19    20    1
     5    19    18    1
     6    18     1    1
     7     1     2    1
     8     2     3    1
     9     3     4    1
    10     4     5    1
    11     5     6    1
    12     4     7    1
    13     7     8    1
    14     8     9    1
    15     9    12    1
    16    12    13   ar
    17    13    14   ar
    18    14    15   ar
    19    15    16   ar
    20    16    17   ar
    21     9    10   am
    22    10    11    2
    23    24    25   ar
    24    25    26   ar
    25    26    27   ar
    26    27    28   ar
    27    28    29    1
    28    29    30    1
    29    30    31    1
    30    31    32    2
    31    28    23   ar
    32     6     1    1
    33    17    12   ar
    34    31    27    1
    35    10     4    1
    36    20    21    1
@<TRIPOS>MOLECULE
*****
 32 36 0 0 0
SMALL
GASTEIGER

@<TRIPOS>ATOM
      1 N         139.8517  138.3516  162.8777 N.3     1  UNL1       -0.2703
      2 C         139.2186  139.2571  163.8921 C.3     1  UNL1        0.0727
      3 C         139.9391  139.5722  165.1694 C.3     1  UNL1        0.0260
      4 C         141.2926  138.9816  165.4323 C.3     1  UNL1        0.0737
      5 C         141.9257  138.0761  164.4179 C.3     1  UNL1        0.0260
      6 C         141.2053  137.7610  163.1406 C.3     1  UNL1        0.0727
      7 C         142.6441  138.4680  165.8321 C.3     1  UNL1        0.0306
      8 C         142.9749  139.0346  167.1811 C.3     1  UNL1        0.1001
      9 N         141.8278  139.8984  167.6150 N.am    1  UNL1       -0.2438
     10 C         140.7882  139.8657  166.5343 C.2     1  UNL1        0.2296
     11 O         139.4747  140.5898  166.5521 O.2     1  UNL1       -0.2745
     12 C         141.7365  140.6610  168.9034 C.ar    1  UNL1        0.1407
     13 C         142.4606  141.9658  169.0556 C.ar    1  UNL1        0.0554
     14 C         142.3692  142.7284  170.3441 C.ar    1  UNL1        0.1036
     15 N         141.5538  142.1862  171.4803 N.ar    1  UNL1       -0.2223
     16 C         140.8296  140.8813  171.3281 C.ar    1  UNL1        0.2001
     17 N         140.9210  140.1188  170.0397 N.ar    1  UNL1       -0.2086
     18 C         139.1312  138.0365  161.6003 C.3     1  UNL1        0.1063
     19 C         139.3034  138.9242  160.4035 C.3     1  UNL1        0.1483
     20 O         139.2907  138.3346  159.0243 O.3     1  UNL1       -0.3786
     21 H         139.4137  139.0400  158.3699 H       1  UNL1        0.2108
     22 C         142.0563  140.1133  160.3182 C.3     1  UNL1        0.0306
     23 C         140.8647  140.9961  160.5432 C.ar    1  UNL1       -0.0238
     24 C         139.4882  140.4016  160.5859 C.ar    1  UNL1        0.0015
     25 C         138.2966  141.2844  160.8109 C.ar    1  UNL1       -0.0020
     26 C         138.4814  142.7617  160.9933 C.ar    1  UNL1        0.0060
     27 C         139.8578  143.3562  160.9507 C.ar    1  UNL1        0.0748
     28 C         141.0495  142.4734  160.7256 C.ar    1  UNL1        0.0233
     29 C         142.2750  143.3383  160.7328 C.3     1  UNL1        0.2352
     30 O         141.8408  144.7557  160.9623 O.3     1  UNL1       -0.4404
     31 C         140.3469  144.7667  161.0969 C.2     1  UNL1        0.3413
     32 O         139.4921  145.9759  161.3359 O.2     1  UNL1       -0.2449
@<TRIPOS>BOND
     1    22    23    1
     2    23    24   ar
     3    24    19    1
     4    19    20    1
     5    19    18    1
     6    18     1    1
     7     1     2    1
     8     2     3    1
     9     3     4    1
    10     4     5    1
    11     5     6    1
    12     4     7    1
    13     7     8    1
    14     8     9    1
    15     9    12    1
    16    12    13   ar
    17    13    14   ar
    18    14    15   ar
    19    15    16   ar
    20    16    17   ar
    21     9    10   am
    22    10    11    2
    23    24    25   ar
    24    25    26   ar
    25    26    27   ar
    26    27    28   ar
    27    28    29    1
    28    29    30    1
    29    30    31    1
    30    31    32    2
    31    28    23   ar
    32     6     1    1
    33    17    12   ar
    34    31    27    1
    35    10     4    1
    36    20    21    1
@<TRIPOS>MOLECULE
*****
 32 36 0 0 0
SMALL
GASTEIGER

@<TRIPOS>ATOM
      1 N         140.3731  138.5456  162.6514 N.3     1  UNL1       -0.2703
      2 C         141.2555  139.3619  163.5486 C.3     1  UNL1        0.0727
      3 C         140.8372  139.6383  164.9623 C.3     1  UNL1        0.0260
      4 C         139.5366  139.0982  165.4788 C.3     1  UNL1        0.0737
      5 C         138.6543  138.2818  164.5817 C.3     1  UNL1        0.0260
      6 C         139.0726  138.0055  163.1679 C.3     1  UNL1        0.0727
      7 C         138.2711  138.6270  166.1320 C.3     1  UNL1        0.0306
      8 C         138.2628  139.1319  167.5446 C.3     1  UNL1        0.1001
      9 N         139.5231  139.9150  167.7643 N.am    1  UNL1       -0.2438
     10 C         140.3104  139.8942  166.4877 C.2     1  UNL1        0.2296
     11 O         141.6382  140.5536  166.2598 O.2     1  UNL1       -0.2745
     12 C         139.9255  140.5989  169.0372 C.ar    1  UNL1        0.1407
     13 C         139.9998  142.0960  169.0932 C.ar    1  UNL1        0.0554
     14 C         140.4022  142.7799  170.3662 C.ar    1  UNL1        0.1036
     15 N         140.7304  141.9667  171.5831 N.ar    1  UNL1       -0.2223
     16 C         140.6561  140.4695  171.5271 C.ar    1  UNL1        0.2001
     17 N         140.2537  139.7857  170.2542 N.ar    1  UNL1       -0.2086
     18 C         140.7914  138.2692  161.2376 C.3     1  UNL1        0.1063
     19 C         140.2086  139.0720  160.1125 C.3     1  UNL1        0.1483
     20 O         139.6455  138.3770  158.9084 O.3     1  UNL1       -0.3786
     21 H         139.3121  139.0370  158.2806 H       1  UNL1        0.2108
     22 C         142.4876  140.6638  158.9845 C.3     1  UNL1        0.0306
     23 C         141.3283  141.3657  159.6276 C.ar    1  UNL1       -0.0238
     24 C         140.1888  140.5698  160.1915 C.ar    1  UNL1        0.0015
     25 C         139.0296  141.2717  160.8346 C.ar    1  UNL1       -0.0020
     26 C         139.0097  142.7694  160.9136 C.ar    1  UNL1        0.0060
     27 C         140.1492  143.5653  160.3496 C.ar    1  UNL1        0.0748
     28 C         141.3085  142.8634  159.7066 C.ar    1  UNL1        0.0233
     29 C         142.2815  143.9060  159.2416 C.3     1  UNL1        0.2352
     30 O         141.7236  145.2523  159.5972 O.3     1  UNL1       -0.4404
     31 C         140.4058  145.0417  160.2820 C.2     1  UNL1        0.3413
     32 O         139.5030  146.1184  160.8071 O.2     1  UNL1       -0.2449
@<TRIPOS>BOND
     1    22    23    1
     2    23    24   ar
     3    24    19    1
     4    19    20    1
     5    19    18    1
     6    18     1    1
     7     1     2    1
     8     2     3    1
     9     3     4    1
    10     4     5    1
    11     5     6    1
    12     4     7    1
    13     7     8    1
    14     8     9    1
    15     9    12    1
    16    12    13   ar
    17    13    14   ar
    18    14    15   ar
    19    15    16   ar
    20    16    17   ar
    21     9    10   am
    22    10    11    2
    23    24    25   ar
    24    25    26   ar
    25    26    27   ar
    26    27    28   ar
    27    28    29    1
    28    29    30    1
    29    30    31    1
    30    31    32    2
    31    28    23   ar
    32     6     1    1
    33    17    12   ar
    34    31    27    1
    35    10     4    1
    36    20    21    1
@<TRIPOS>MOLECULE
*****
 32 36 0 0 0
SMALL
GASTEIGER

@<TRIPOS>ATOM
      1 N         138.3189  142.2101  162.7261 N.3     1  UNL1       -0.2703
      2 C         139.1599  142.9301  163.7382 C.3     1  UNL1        0.0727
      3 C         139.4403  142.2955  165.0681 C.3     1  UNL1        0.0260
      4 C         138.8797  140.9410  165.3859 C.3     1  UNL1        0.0737
      5 C         138.0387  140.2210  164.3738 C.3     1  UNL1        0.0260
      6 C         137.7583  140.8556  163.0440 C.3     1  UNL1        0.0727
      7 C         138.3899  139.5990  165.8433 C.3     1  UNL1        0.0306
      8 C         138.9067  139.3656  167.2321 C.3     1  UNL1        0.1001
      9 N         139.7159  140.5633  167.6329 N.am    1  UNL1       -0.2438
     10 C         139.6993  141.5369  166.4920 C.2     1  UNL1        0.2296
     11 O         140.3822  142.8721  166.4622 O.2     1  UNL1       -0.2745
     12 C         140.4184  140.7539  168.9444 C.ar    1  UNL1        0.1407
     13 C         139.9279  141.7872  169.9147 C.ar    1  UNL1        0.0554
     14 C         140.6305  141.9778  171.2263 C.ar    1  UNL1        0.1036
     15 N         141.8236  141.1352  171.5674 N.ar    1  UNL1       -0.2223
     16 C         142.3142  140.1018  170.5970 C.ar    1  UNL1        0.2001
     17 N         141.6116  139.9113  169.2855 N.ar    1  UNL1       -0.2086
     18 C         138.0384  142.8447  161.3962 C.3     1  UNL1        0.1063
     19 C         139.0363  142.7250  160.2827 C.3     1  UNL1        0.1483
     20 O         138.8204  143.4699  158.9988 O.3     1  UNL1       -0.3786
     21 H         139.5524  143.2840  158.3901 H       1  UNL1        0.2108
     22 C         141.6122  143.9281  161.2405 C.3     1  UNL1        0.0306
     23 C         141.5382  142.4620  160.9321 C.ar    1  UNL1       -0.0238
     24 C         140.2503  141.8605  160.4532 C.ar    1  UNL1        0.0015
     25 C         140.1762  140.3944  160.1448 C.ar    1  UNL1       -0.0020
     26 C         141.3900  139.5299  160.3152 C.ar    1  UNL1        0.0060
     27 C         142.6779  140.1314  160.7941 C.ar    1  UNL1        0.0748
     28 C         142.7520  141.5975  161.1025 C.ar    1  UNL1        0.0233
     29 C         144.1487  141.9061  161.5544 C.3     1  UNL1        0.2352
     30 O         144.9378  140.6308  161.5253 O.3     1  UNL1       -0.4404
     31 C         144.0288  139.5340  161.0554 C.2     1  UNL1        0.3413
     32 O         144.4047  138.0927  160.8779 O.2     1  UNL1       -0.2449
@<TRIPOS>BOND
     1    22    23    1
     2    23    24   ar
     3    24    19    1
     4    19    20    1
     5    19    18    1
     6    18     1    1
     7     1     2    1
     8     2     3    1
     9     3     4    1
    10     4     5    1
    11     5     6    1
    12     4     7    1
    13     7     8    1
    14     8     9    1
    15     9    12    1
    16    12    13   ar
    17    13    14   ar
    18    14    15   ar
    19    15    16   ar
    20    16    17   ar
    21     9    10   am
    22    10    11    2
    23    24    25   ar
    24    25    26   ar
    25    26    27   ar
    26    27    28   ar
    27    28    29    1
    28    29    30    1
    29    30    31    1
    30    31    32    2
    31    28    23   ar
    32     6     1    1
    33    17    12   ar
    34    31    27    1
    35    10     4    1
    36    20    21    1
@<TRIPOS>MOLECULE
*****
 32 36 0 0 0
SMALL
GASTEIGER

@<TRIPOS>ATOM
      1 N         144.5432  141.3383  162.9417 N.3     1  UNL1       -0.2703
      2 C         143.9563  139.9762  162.7177 C.3     1  UNL1        0.0727
      3 C         143.5986  139.5326  161.3302 C.3     1  UNL1        0.0260
      4 C         143.8279  140.4510  160.1667 C.3     1  UNL1        0.0737
      5 C         144.4148  141.8131  160.3906 C.3     1  UNL1        0.0260
      6 C         144.7724  142.2567  161.7782 C.3     1  UNL1        0.0727
      7 C         143.9988  141.2555  158.9122 C.3     1  UNL1        0.0306
      8 C         143.5130  140.4267  157.7602 C.3     1  UNL1        0.1001
      9 N         143.0418  139.1099  158.3027 N.am    1  UNL1       -0.2438
     10 C         143.2364  139.1250  159.7899 C.2     1  UNL1        0.2296
     11 O         142.8988  138.0099  160.7346 O.2     1  UNL1       -0.2745
     12 C         142.4755  137.9771  157.4991 C.ar    1  UNL1        0.1407
     13 C         141.1242  138.1115  156.8620 C.ar    1  UNL1        0.0554
     14 C         140.5579  136.9787  156.0583 C.ar    1  UNL1        0.1036
     15 N         141.3428  135.7114  155.8917 N.ar    1  UNL1       -0.2223
     16 C         142.6942  135.5769  156.5288 C.ar    1  UNL1        0.2001
     17 N         143.2605  136.7098  157.3324 N.ar    1  UNL1       -0.2086
     18 C         144.9009  141.7819  164.3293 C.3     1  UNL1        0.1063
     19 C         144.1474  142.9070  164.9746 C.3     1  UNL1        0.1483
     20 O         144.7933  143.7176  166.0589 O.3     1  UNL1       -0.3786
     21 H         144.1747  144.3991  166.3652 H       1  UNL1        0.2108
     22 C         143.6317  145.2472  163.1697 C.3     1  UNL1        0.0306
     23 C         142.4901  144.3916  163.6331 C.ar    1  UNL1       -0.0238
     24 C         142.7480  143.2215  164.5355 C.ar    1  UNL1        0.0015
     25 C         141.6064  142.3659  164.9990 C.ar    1  UNL1       -0.0020
     26 C         140.2070  142.6804  164.5600 C.ar    1  UNL1        0.0060
     27 C         139.9492  143.8505  163.6576 C.ar    1  UNL1        0.0748
     28 C         141.0907  144.7061  163.1942 C.ar    1  UNL1        0.0233
     29 C         140.5334  145.7856  162.3144 C.3     1  UNL1        0.2352
     30 O         139.0475  145.5972  162.2341 O.3     1  UNL1       -0.4404
     31 C         138.6864  144.4013  163.0643 C.2     1  UNL1        0.3413
     32 O         137.3051  143.8524  163.2657 O.2     1  UNL1       -0.2449
@<TRIPOS>BOND
     1    22    23    1
     2    23    24   ar
     3    24    19    1
     4    19    20    1
     5    19    18    1
     6    18     1    1
     7     1     2    1
     8     2     3    1
     9     3     4    1
    10     4     5    1
    11     5     6    1
    12     4     7    1
    13     7     8    1
    14     8     9    1
    15     9    12    1
    16    12    13   ar
    17    13    14   ar
    18    14    15   ar
    19    15    16   ar
    20    16    17   ar
    21     9    10   am
    22    10    11    2
    23    24    25   ar
    24    25    26   ar
    25    26    27   ar
    26    27    28   ar
    27    28    29    1
    28    29    30    1
    29    30    31    1
    30    31    32    2
    31    28    23   ar
    32     6     1    1
    33    17    12   ar
    34    31    27    1
    35    10     4    1
    36    20    21    1
@<TRIPOS>MOLECULE
*****
 32 36 0 0 0
SMALL
GASTEIGER

@<TRIPOS>ATOM
      1 N         142.2165  138.2245  162.9557 N.3     1  UNL1       -0.2703
      2 C         142.9333  138.9622  164.0475 C.3     1  UNL1        0.0727
      3 C         142.1907  139.3836  165.2807 C.3     1  UNL1        0.0260
      4 C         140.7312  139.0673  165.4221 C.3     1  UNL1        0.0737
      5 C         140.0145  138.3296  164.3304 C.3     1  UNL1        0.0260
      6 C         140.7571  137.9082  163.0972 C.3     1  UNL1        0.0727
      7 C         139.2782  138.8227  165.7031 C.3     1  UNL1        0.0306
      8 C         138.9601  139.4115  167.0456 C.3     1  UNL1        0.1001
      9 N         140.2166  140.0201  167.5943 N.am    1  UNL1       -0.2438
     10 C         141.3112  139.8074  166.5910 C.2     1  UNL1        0.2296
     11 O         142.7356  140.2559  166.7316 O.2     1  UNL1       -0.2745
     12 C         140.3543  140.7187  168.9144 C.ar    1  UNL1        0.1407
     13 C         140.0743  142.1887  169.0179 C.ar    1  UNL1        0.0554
     14 C         140.2120  142.8873  170.3381 C.ar    1  UNL1        0.1036
     15 N         140.6297  142.1160  171.5549 N.ar    1  UNL1       -0.2223
     16 C         140.9098  140.6459  171.4514 C.ar    1  UNL1        0.2001
     17 N         140.7721  139.9474  170.1312 N.ar    1  UNL1       -0.2086
     18 C         142.9592  137.8030  161.7224 C.3     1  UNL1        0.1063
     19 C         143.0254  138.7196  160.5369 C.3     1  UNL1        0.1483
     20 O         144.3559  139.1187  159.9708 O.3     1  UNL1       -0.3786
     21 H         144.2210  139.7094  159.2134 H       1  UNL1        0.2108
     22 C         142.0126  141.4511  161.2533 C.3     1  UNL1        0.0306
     23 C         141.2547  140.6028  160.2756 C.ar    1  UNL1       -0.0238
     24 C         141.7611  139.2371  159.9174 C.ar    1  UNL1        0.0015
     25 C         141.0032  138.3887  158.9396 C.ar    1  UNL1       -0.0020
     26 C         139.7389  138.9062  158.3201 C.ar    1  UNL1        0.0060
     27 C         139.2325  140.2719  158.6783 C.ar    1  UNL1        0.0748
     28 C         139.9905  141.1202  159.6561 C.ar    1  UNL1        0.0233
     29 C         139.2524  142.4164  159.8147 C.3     1  UNL1        0.2352
     30 O         138.0383  142.3692  158.9350 O.3     1  UNL1       -0.4404
     31 C         138.0261  141.0438  158.2327 C.2     1  UNL1        0.3413
     32 O         136.9894  140.5730  157.2562 O.2     1  UNL1       -0.2449
@<TRIPOS>BOND
     1    22    23    1
     2    23    24   ar
     3    24    19    1
     4    19    20    1
     5    19    18    1
     6    18     1    1
     7     1     2    1
     8     2     3    1
     9     3     4    1
    10     4     5    1
    11     5     6    1
    12     4     7    1
    13     7     8    1
    14     8     9    1
    15     9    12    1
    16    12    13   ar
    17    13    14   ar
    18    14    15   ar
    19    15    16   ar
    20    16    17   ar
    21     9    10   am
    22    10    11    2
    23    24    25   ar
    24    25    26   ar
    25    26    27   ar
    26    27    28   ar
    27    28    29    1
    28    29    30    1
    29    30    31    1
    30    31    32    2
    31    28    23   ar
    32     6     1    1
    33    17    12   ar
    34    31    27    1
    35    10     4    1
    36    20    21    1
