@<TRIPOS>MOLECULE
*****
 34 37 0 0 0
SMALL
GASTEIGER

@<TRIPOS>ATOM
      1 C         140.5935  142.8928  165.3047 C.ar    1  UNL1        0.0305
      2 C         140.8493  142.5328  166.7382 C.ar    1  UNL1        0.0049
      3 C         142.2528  142.3022  167.2146 C.ar    1  UNL1        0.0536
      4 C         143.4005  142.4317  166.2574 C.ar    1  UNL1        0.0107
      5 C         143.1447  142.7917  164.8240 C.ar    1  UNL1        0.0735
      6 C         144.2924  142.9212  163.8668 C.ar    1  UNL1        0.2030
      7 O         145.6959  142.6906  164.3432 O.2     1  UNL1       -0.2863
      8 C         144.0365  143.2812  162.4334 C.ar    1  UNL1        0.0955
      9 C         142.6330  143.5118  161.9570 C.ar    1  UNL1        0.2024
     10 O         141.4853  143.3823  162.9141 O.2     1  UNL1       -0.4400
     11 C         141.7412  143.0223  164.3476 C.ar    1  UNL1        0.1474
     12 N         142.3771  143.8718  160.5235 N.pl3   1  UNL1       -0.2742
     13 C         141.3430  144.9034  160.1823 C.3     1  UNL1        0.1257
     14 C         141.0872  145.2634  158.7488 C.3     1  UNL1        0.1637
     15 O         141.8655  144.5919  157.6565 O.3     1  UNL1       -0.3501
     16 C         142.8996  143.5603  157.9976 C.3     1  UNL1        0.1637
     17 C         143.1554  143.2002  159.4311 C.3     1  UNL1        0.1257
     18 C         142.5087  141.9422  168.6481 C.2     1  UNL1        0.2491
     19 O         142.6100  143.0207  169.6857 O.2     1  UNL1       -0.2699
     20 N         142.6634  140.5037  169.0440 N.am    1  UNL1       -0.2726
     21 C         142.9193  140.1436  170.4774 C.3     1  UNL1        0.1152
     22 C         142.5622  139.4252  168.0063 C.3     1  UNL1        0.1152
     23 C         138.4701  144.3862  165.1988 C.3     1  UNL1        0.0264
     24 C         139.1899  143.1234  164.8283 C.3     1  UNL1        0.0984
     25 N         138.5063  142.0912  163.9815 N.pl3   1  UNL1       -0.3034
     26 C         137.6789  142.5151  162.8043 C.3     1  UNL1        0.1124
     27 C         138.6499  140.6351  164.3119 C.ar    1  UNL1        0.0526
     28 C         138.1611  140.1135  165.6306 C.ar    1  UNL1        0.0443
     29 C         138.3047  138.6574  165.9610 C.ar    1  UNL1        0.1436
     30 F         137.8160  138.1358  167.2797 F       1  UNL1       -0.2041
     31 C         138.9371  137.7229  164.9727 C.ar    1  UNL1        0.0593
     32 C         139.4259  138.2445  163.6540 C.ar    1  UNL1        0.1436
     33 F         140.0583  137.3100  162.6656 F       1  UNL1       -0.2041
     34 C         139.2823  139.7006  163.3236 C.ar    1  UNL1        0.0443
@<TRIPOS>BOND
     1    24    23    1
     2    24     1    1
     3     1     2   ar
     4     2     3   ar
     5     3    18    1
     6    18    19    2
     7    18    20   am
     8    20    21    1
     9    20    22    1
    10     3     4   ar
    11     4     5   ar
    12     5     6   ar
    13     6     7    2
    14     6     8   ar
    15     8     9   ar
    16     9    12    1
    17    12    13    1
    18    13    14    1
    19    14    15    1
    20    15    16    1
    21    16    17    1
    22     9    10   ar
    23    10    11   ar
    24    24    25    1
    25    25    26    1
    26    25    27    1
    27    27    28   ar
    28    28    29   ar
    29    29    30    1
    30    29    31   ar
    31    31    32   ar
    32    32    33    1
    33    32    34   ar
    34    11     1   ar
    35    34    27   ar
    36    11     5   ar
    37    17    12    1
@<TRIPOS>MOLECULE
*****
 34 37 0 0 0
SMALL
GASTEIGER

@<TRIPOS>ATOM
      1 C         139.8698  142.1967  165.3712 C.ar    1  UNL1        0.0305
      2 C         140.0350  142.2198  166.8618 C.ar    1  UNL1        0.0049
      3 C         139.9071  140.9502  167.6503 C.ar    1  UNL1        0.0536
      4 C         139.6140  139.6575  166.9482 C.ar    1  UNL1        0.0107
      5 C         139.4488  139.6344  165.4575 C.ar    1  UNL1        0.0735
      6 C         139.1557  138.3417  164.7554 C.ar    1  UNL1        0.2030
      7 O         139.0277  137.0721  165.5439 O.2     1  UNL1       -0.2863
      8 C         138.9905  138.3185  163.2647 C.ar    1  UNL1        0.0955
      9 C         139.1184  139.5881  162.4761 C.ar    1  UNL1        0.2024
     10 O         139.4115  140.8809  163.1783 O.2     1  UNL1       -0.4400
     11 C         139.5767  140.9040  164.6690 C.ar    1  UNL1        0.1474
     12 N         138.9532  139.5650  160.9855 N.pl3   1  UNL1       -0.2742
     13 C         137.9945  140.5090  160.3223 C.3     1  UNL1        0.1257
     14 C         137.8293  140.4858  158.8316 C.3     1  UNL1        0.1637
     15 O         138.6228  139.5187  158.0040 O.3     1  UNL1       -0.3501
     16 C         139.5816  138.5747  158.6672 C.3     1  UNL1        0.1637
     17 C         139.7468  138.5978  160.1578 C.3     1  UNL1        0.1257
     18 C         140.0723  140.9733  169.1411 C.2     1  UNL1        0.2491
     19 O         138.8653  141.0503  170.0283 O.2     1  UNL1       -0.2699
     20 N         141.4445  140.9195  169.7445 N.am    1  UNL1       -0.2726
     21 C         141.6097  140.9426  171.2352 C.3     1  UNL1        0.1152
     22 C         142.6515  140.8426  168.8572 C.3     1  UNL1        0.1152
     23 C         139.1078  144.6336  164.8910 C.3     1  UNL1        0.0264
     24 C         139.9978  143.4663  164.5825 C.3     1  UNL1        0.0984
     25 N         141.0156  143.5684  163.4855 N.pl3   1  UNL1       -0.3034
     26 C         140.6205  144.1104  162.1439 C.3     1  UNL1        0.1124
     27 C         142.4287  143.1286  163.7302 C.ar    1  UNL1        0.0526
     28 C         143.0300  142.0377  162.8944 C.ar    1  UNL1        0.0443
     29 C         144.4430  141.5978  163.1390 C.ar    1  UNL1        0.1436
     30 F         145.0442  140.5070  162.3032 F       1  UNL1       -0.2041
     31 C         145.2547  142.2489  164.2193 C.ar    1  UNL1        0.0593
     32 C         144.6535  143.3397  165.0551 C.ar    1  UNL1        0.1436
     33 F         145.4653  143.9907  166.1355 F       1  UNL1       -0.2041
     34 C         143.2405  143.7796  164.8105 C.ar    1  UNL1        0.0443
@<TRIPOS>BOND
     1    24    23    1
     2    24     1    1
     3     1     2   ar
     4     2     3   ar
     5     3    18    1
     6    18    19    2
     7    18    20   am
     8    20    21    1
     9    20    22    1
    10     3     4   ar
    11     4     5   ar
    12     5     6   ar
    13     6     7    2
    14     6     8   ar
    15     8     9   ar
    16     9    12    1
    17    12    13    1
    18    13    14    1
    19    14    15    1
    20    15    16    1
    21    16    17    1
    22     9    10   ar
    23    10    11   ar
    24    24    25    1
    25    25    26    1
    26    25    27    1
    27    27    28   ar
    28    28    29   ar
    29    29    30    1
    30    29    31   ar
    31    31    32   ar
    32    32    33    1
    33    32    34   ar
    34    11     1   ar
    35    34    27   ar
    36    11     5   ar
    37    17    12    1
@<TRIPOS>MOLECULE
*****
 34 37 0 0 0
SMALL
GASTEIGER

@<TRIPOS>ATOM
      1 C         141.7252  140.4554  165.3296 C.ar    1  UNL1        0.0305
      2 C         141.6702  140.2925  166.8196 C.ar    1  UNL1        0.0049
      3 C         142.4719  141.2013  167.7035 C.ar    1  UNL1        0.0536
      4 C         143.3286  142.2730  167.0973 C.ar    1  UNL1        0.0107
      5 C         143.3836  142.4360  165.6073 C.ar    1  UNL1        0.0735
      6 C         144.2403  143.5077  165.0011 C.ar    1  UNL1        0.2030
      7 O         145.0420  144.4165  165.8850 O.2     1  UNL1       -0.2863
      8 C         144.2953  143.6706  163.5110 C.ar    1  UNL1        0.0955
      9 C         143.4936  142.7618  162.6270 C.ar    1  UNL1        0.2024
     10 O         142.6369  141.6901  163.2332 O.2     1  UNL1       -0.4400
     11 C         142.5819  141.5272  164.7234 C.ar    1  UNL1        0.1474
     12 N         143.5486  142.9247  161.1369 N.pl3   1  UNL1       -0.2742
     13 C         142.4265  143.6108  160.4156 C.3     1  UNL1        0.1257
     14 C         142.4816  143.7737  158.9254 C.3     1  UNL1        0.1637
     15 O         143.6586  143.2506  158.1567 O.3     1  UNL1       -0.3501
     16 C         144.7806  142.5645  158.8781 C.3     1  UNL1        0.1637
     17 C         144.7256  142.4016  160.3682 C.3     1  UNL1        0.1257
     18 C         142.4169  141.0384  169.1937 C.2     1  UNL1        0.2491
     19 O         143.3146  140.0474  169.8735 O.2     1  UNL1       -0.2699
     20 N         141.4643  141.8665  170.0040 N.am    1  UNL1       -0.2726
     21 C         141.4093  141.7037  171.4941 C.3     1  UNL1        0.1152
     22 C         140.5666  142.8576  169.3242 C.3     1  UNL1        0.1152
     23 C         141.6061  138.4544  163.6767 C.3     1  UNL1        0.0264
     24 C         140.9235  139.5466  164.4456 C.3     1  UNL1        0.0984
     25 N         139.4392  139.7300  164.3305 N.pl3   1  UNL1       -0.3034
     26 C         138.5126  138.6261  164.7463 C.3     1  UNL1        0.1124
     27 C         138.8815  141.0173  163.7997 C.ar    1  UNL1        0.0526
     28 C         138.4124  142.0795  164.7492 C.ar    1  UNL1        0.0443
     29 C         137.8547  143.3668  164.2184 C.ar    1  UNL1        0.1436
     30 F         137.3856  144.4291  165.1680 F       1  UNL1       -0.2041
     31 C         137.7660  143.5919  162.7381 C.ar    1  UNL1        0.0593
     32 C         138.2350  142.5296  161.7885 C.ar    1  UNL1        0.1436
     33 F         138.1463  142.7547  160.3081 F       1  UNL1       -0.2041
     34 C         138.7928  141.2424  162.3193 C.ar    1  UNL1        0.0443
@<TRIPOS>BOND
     1    24    23    1
     2    24     1    1
     3     1     2   ar
     4     2     3   ar
     5     3    18    1
     6    18    19    2
     7    18    20   am
     8    20    21    1
     9    20    22    1
    10     3     4   ar
    11     4     5   ar
    12     5     6   ar
    13     6     7    2
    14     6     8   ar
    15     8     9   ar
    16     9    12    1
    17    12    13    1
    18    13    14    1
    19    14    15    1
    20    15    16    1
    21    16    17    1
    22     9    10   ar
    23    10    11   ar
    24    24    25    1
    25    25    26    1
    26    25    27    1
    27    27    28   ar
    28    28    29   ar
    29    29    30    1
    30    29    31   ar
    31    31    32   ar
    32    32    33    1
    33    32    34   ar
    34    11     1   ar
    35    34    27   ar
    36    11     5   ar
    37    17    12    1
@<TRIPOS>MOLECULE
*****
 34 37 0 0 0
SMALL
GASTEIGER

@<TRIPOS>ATOM
      1 C         142.7113  141.6784  165.1127 C.ar    1  UNL1        0.0305
      2 C         142.5355  141.5539  166.5971 C.ar    1  UNL1        0.0049
      3 C         142.1024  140.2478  167.1941 C.ar    1  UNL1        0.0536
      4 C         141.8450  139.0662  166.3066 C.ar    1  UNL1        0.0107
      5 C         142.0208  139.1907  164.8222 C.ar    1  UNL1        0.0735
      6 C         141.7635  138.0091  163.9348 C.ar    1  UNL1        0.2030
      7 O         141.3303  136.7030  164.5317 O.2     1  UNL1       -0.2863
      8 C         141.9393  138.1336  162.4503 C.ar    1  UNL1        0.0955
      9 C         142.3724  139.4397  161.8533 C.ar    1  UNL1        0.2024
     10 O         142.6298  140.6214  162.7407 O.2     1  UNL1       -0.4400
     11 C         142.4540  140.4968  164.2252 C.ar    1  UNL1        0.1474
     12 N         142.5482  139.5642  160.3689 N.pl3   1  UNL1       -0.2742
     13 C         142.6871  140.9194  159.7411 C.3     1  UNL1        0.1257
     14 C         142.8629  141.0439  158.2566 C.3     1  UNL1        0.1637
     15 O         142.8998  139.8131  157.3999 O.3     1  UNL1       -0.3501
     16 C         142.7610  138.4579  158.0277 C.3     1  UNL1        0.1637
     17 C         142.5852  138.3334  159.5121 C.3     1  UNL1        0.1257
     18 C         141.9266  140.1233  168.6786 C.2     1  UNL1        0.2491
     19 O         143.1287  140.0401  169.5718 O.2     1  UNL1       -0.2699
     20 N         140.5486  140.0820  169.2697 N.am    1  UNL1       -0.2726
     21 C         140.3727  139.9575  170.7541 C.3     1  UNL1        0.1152
     22 C         139.3464  140.1653  168.3764 C.3     1  UNL1        0.1152
     23 C         144.4081  143.6418  164.9860 C.3     1  UNL1        0.0264
     24 C         143.1445  142.9846  164.5156 C.3     1  UNL1        0.0984
     25 N         142.3140  143.6334  163.4482 N.pl3   1  UNL1       -0.3034
     26 C         142.9660  144.1453  162.1981 C.3     1  UNL1        0.1124
     27 C         140.8314  143.7704  163.6310 C.ar    1  UNL1        0.0526
     28 C         139.8927  143.1197  162.6587 C.ar    1  UNL1        0.0443
     29 C         138.4102  143.2566  162.8414 C.ar    1  UNL1        0.1436
     30 F         137.4714  142.6059  161.8692 F       1  UNL1       -0.2041
     31 C         137.8665  144.0443  163.9964 C.ar    1  UNL1        0.0593
     32 C         138.8053  144.6950  164.9686 C.ar    1  UNL1        0.1436
     33 F         138.2615  145.4827  166.1236 F       1  UNL1       -0.2041
     34 C         140.2877  144.5581  164.7859 C.ar    1  UNL1        0.0443
@<TRIPOS>BOND
     1    24    23    1
     2    24     1    1
     3     1     2   ar
     4     2     3   ar
     5     3    18    1
     6    18    19    2
     7    18    20   am
     8    20    21    1
     9    20    22    1
    10     3     4   ar
    11     4     5   ar
    12     5     6   ar
    13     6     7    2
    14     6     8   ar
    15     8     9   ar
    16     9    12    1
    17    12    13    1
    18    13    14    1
    19    14    15    1
    20    15    16    1
    21    16    17    1
    22     9    10   ar
    23    10    11   ar
    24    24    25    1
    25    25    26    1
    26    25    27    1
    27    27    28   ar
    28    28    29   ar
    29    29    30    1
    30    29    31   ar
    31    31    32   ar
    32    32    33    1
    33    32    34   ar
    34    11     1   ar
    35    34    27   ar
    36    11     5   ar
    37    17    12    1
@<TRIPOS>MOLECULE
*****
 34 37 0 0 0
SMALL
GASTEIGER

@<TRIPOS>ATOM
      1 C         142.1468  141.3424  164.8363 C.ar    1  UNL1        0.0305
      2 C         142.4675  141.3791  166.3012 C.ar    1  UNL1        0.0049
      3 C         141.7140  140.5015  167.2561 C.ar    1  UNL1        0.0536
      4 C         140.6398  139.5871  166.7462 C.ar    1  UNL1        0.0107
      5 C         140.3191  139.5504  165.2814 C.ar    1  UNL1        0.0735
      6 C         139.2449  138.6360  164.7715 C.ar    1  UNL1        0.2030
      7 O         138.4914  137.7584  165.7264 O.2     1  UNL1       -0.2863
      8 C         138.9241  138.5993  163.3067 C.ar    1  UNL1        0.0955
      9 C         139.6777  139.4770  162.3517 C.ar    1  UNL1        0.2024
     10 O         140.7519  140.3913  162.8615 O.2     1  UNL1       -0.4400
     11 C         141.0726  140.4280  164.3265 C.ar    1  UNL1        0.1474
     12 N         139.3569  139.4402  160.8868 N.pl3   1  UNL1       -0.2742
     13 C         138.2820  140.3272  160.3320 C.3     1  UNL1        0.1257
     14 C         137.9613  140.2904  158.8671 C.3     1  UNL1        0.1637
     15 O         138.7155  139.3668  157.9571 O.3     1  UNL1       -0.3501
     16 C         139.7904  138.4798  158.5120 C.3     1  UNL1        0.1637
     17 C         140.1111  138.5166  159.9768 C.3     1  UNL1        0.1257
     18 C         142.0348  140.5382  168.7210 C.2     1  UNL1        0.2491
     19 O         142.9695  139.5235  169.3097 O.2     1  UNL1       -0.2699
     20 N         141.4207  141.5895  169.5971 N.am    1  UNL1       -0.2726
     21 C         141.7413  141.6262  171.0619 C.3     1  UNL1        0.1152
     22 C         140.4858  142.6042  169.0083 C.3     1  UNL1        0.1152
     23 C         144.2203  141.7687  163.3300 C.3     1  UNL1        0.0264
     24 C         142.9003  142.2201  163.8813 C.3     1  UNL1        0.0984
     25 N         142.3338  143.5490  163.4777 N.pl3   1  UNL1       -0.3034
     26 C         143.2407  144.6233  162.9547 C.3     1  UNL1        0.1124
     27 C         140.8604  143.8038  163.5971 C.ar    1  UNL1        0.0526
     28 C         140.3120  144.4737  164.8221 C.ar    1  UNL1        0.0443
     29 C         138.8387  144.7285  164.9416 C.ar    1  UNL1        0.1436
     30 F         138.2903  145.3983  166.1665 F       1  UNL1       -0.2041
     31 C         137.9138  144.3134  163.8361 C.ar    1  UNL1        0.0593
     32 C         138.4622  143.6435  162.6111 C.ar    1  UNL1        0.1436
     33 F         137.5371  143.2285  161.5056 F       1  UNL1       -0.2041
     34 C         139.9355  143.3888  162.4916 C.ar    1  UNL1        0.0443
@<TRIPOS>BOND
     1    24    23    1
     2    24     1    1
     3     1     2   ar
     4     2     3   ar
     5     3    18    1
     6    18    19    2
     7    18    20   am
     8    20    21    1
     9    20    22    1
    10     3     4   ar
    11     4     5   ar
    12     5     6   ar
    13     6     7    2
    14     6     8   ar
    15     8     9   ar
    16     9    12    1
    17    12    13    1
    18    13    14    1
    19    14    15    1
    20    15    16    1
    21    16    17    1
    22     9    10   ar
    23    10    11   ar
    24    24    25    1
    25    25    26    1
    26    25    27    1
    27    27    28   ar
    28    28    29   ar
    29    29    30    1
    30    29    31   ar
    31    31    32   ar
    32    32    33    1
    33    32    34   ar
    34    11     1   ar
    35    34    27   ar
    36    11     5   ar
    37    17    12    1
@<TRIPOS>MOLECULE
*****
 34 37 0 0 0
SMALL
GASTEIGER

@<TRIPOS>ATOM
      1 C         139.9737  141.1085  165.0894 C.ar    1  UNL1        0.0305
      2 C         139.6936  141.2439  166.5568 C.ar    1  UNL1        0.0049
      3 C         140.5839  140.5663  167.5558 C.ar    1  UNL1        0.0536
      4 C         141.7543  139.7534  167.0876 C.ar    1  UNL1        0.0107
      5 C         142.0344  139.6180  165.6202 C.ar    1  UNL1        0.0735
      6 C         143.2048  138.8051  165.1520 C.ar    1  UNL1        0.2030
      7 O         144.0951  138.1275  166.1510 O.2     1  UNL1       -0.2863
      8 C         143.4850  138.6698  163.6846 C.ar    1  UNL1        0.0955
      9 C         142.5946  139.3474  162.6854 C.ar    1  UNL1        0.2024
     10 O         141.4242  140.1603  163.1537 O.2     1  UNL1       -0.4400
     11 C         141.1441  140.2956  164.6211 C.ar    1  UNL1        0.1474
     12 N         142.8748  139.2120  161.2181 N.pl3   1  UNL1       -0.2742
     13 C         143.5652  140.3210  160.4809 C.3     1  UNL1        0.1257
     14 C         143.8454  140.1856  159.0135 C.3     1  UNL1        0.1637
     15 O         143.4350  138.9413  158.2833 O.3     1  UNL1       -0.3501
     16 C         142.7446  137.8323  159.0205 C.3     1  UNL1        0.1637
     17 C         142.4644  137.9677  160.4878 C.3     1  UNL1        0.1257
     18 C         140.3037  140.7016  169.0233 C.2     1  UNL1        0.2491
     19 O         139.2865  139.8145  169.6776 O.2     1  UNL1       -0.2699
     20 N         141.0409  141.7241  169.8363 N.am    1  UNL1       -0.2726
     21 C         140.7608  141.8595  171.3037 C.3     1  UNL1        0.1152
     22 C         142.0582  142.6113  169.1820 C.3     1  UNL1        0.1152
     23 C         137.9355  141.0380  163.4797 C.3     1  UNL1        0.0264
     24 C         139.0834  141.7862  164.0902 C.3     1  UNL1        0.0984
     25 N         139.3409  143.2118  163.7016 N.pl3   1  UNL1       -0.3034
     26 C         138.2297  144.2177  163.7603 C.3     1  UNL1        0.1124
     27 C         140.7098  143.6317  163.2543 C.ar    1  UNL1        0.0526
     28 C         141.1465  143.3821  161.8412 C.ar    1  UNL1        0.0443
     29 C         142.5152  143.8020  161.3938 C.ar    1  UNL1        0.1436
     30 F         142.9519  143.5524  159.9807 F       1  UNL1       -0.2041
     31 C         143.4473  144.4715  162.3597 C.ar    1  UNL1        0.0593
     32 C         143.0107  144.7211  163.7729 C.ar    1  UNL1        0.1436
     33 F         143.9429  145.3906  164.7387 F       1  UNL1       -0.2041
     34 C         141.6419  144.3012  164.2202 C.ar    1  UNL1        0.0443
@<TRIPOS>BOND
     1    24    23    1
     2    24     1    1
     3     1     2   ar
     4     2     3   ar
     5     3    18    1
     6    18    19    2
     7    18    20   am
     8    20    21    1
     9    20    22    1
    10     3     4   ar
    11     4     5   ar
    12     5     6   ar
    13     6     7    2
    14     6     8   ar
    15     8     9   ar
    16     9    12    1
    17    12    13    1
    18    13    14    1
    19    14    15    1
    20    15    16    1
    21    16    17    1
    22     9    10   ar
    23    10    11   ar
    24    24    25    1
    25    25    26    1
    26    25    27    1
    27    27    28   ar
    28    28    29   ar
    29    29    30    1
    30    29    31   ar
    31    31    32   ar
    32    32    33    1
    33    32    34   ar
    34    11     1   ar
    35    34    27   ar
    36    11     5   ar
    37    17    12    1
@<TRIPOS>MOLECULE
*****
 34 37 0 0 0
SMALL
GASTEIGER

@<TRIPOS>ATOM
      1 C         142.1714  141.9085  165.0121 C.ar    1  UNL1        0.0305
      2 C         142.2339  141.7022  166.4965 C.ar    1  UNL1        0.0049
      3 C         141.2348  142.3758  167.3899 C.ar    1  UNL1        0.0536
      4 C         140.1734  143.2556  166.7989 C.ar    1  UNL1        0.0107
      5 C         140.1110  143.4619  165.3145 C.ar    1  UNL1        0.0735
      6 C         139.0495  144.3417  164.7235 C.ar    1  UNL1        0.2030
      7 O         138.0505  145.0152  165.6170 O.2     1  UNL1       -0.2863
      8 C         138.9871  144.5479  163.2391 C.ar    1  UNL1        0.0955
      9 C         139.9862  143.8744  162.3456 C.ar    1  UNL1        0.2024
     10 O         141.0476  142.9946  162.9366 O.2     1  UNL1       -0.4400
     11 C         141.1100  142.7883  164.4211 C.ar    1  UNL1        0.1474
     12 N         139.9238  144.0806  160.8612 N.pl3   1  UNL1       -0.2742
     13 C         139.3361  143.0182  159.9804 C.3     1  UNL1        0.1257
     14 C         139.2737  143.2245  158.4959 C.3     1  UNL1        0.1637
     15 O         139.7990  144.4932  157.8923 O.3     1  UNL1       -0.3501
     16 C         140.3867  145.5557  158.7731 C.3     1  UNL1        0.1637
     17 C         140.4491  145.3494  160.2575 C.3     1  UNL1        0.1257
     18 C         141.2972  142.1695  168.8744 C.2     1  UNL1        0.2491
     19 O         142.0779  143.1211  169.7317 O.2     1  UNL1       -0.2699
     20 N         140.5789  141.0116  169.5016 N.am    1  UNL1       -0.2726
     21 C         140.6412  140.8053  170.9860 C.3     1  UNL1        0.1152
     22 C         139.7982  140.0600  168.6442 C.3     1  UNL1        0.1152
     23 C         144.3768  141.9877  163.6408 C.3     1  UNL1        0.0264
     24 C         143.1705  141.2349  164.1186 C.3     1  UNL1        0.0984
     25 N         142.9633  139.8087  163.7029 N.pl3   1  UNL1       -0.3034
     26 C         144.1457  138.9129  163.4807 C.3     1  UNL1        0.1124
     27 C         141.5736  139.2782  163.5095 C.ar    1  UNL1        0.0526
     28 C         140.8148  139.6021  162.2567 C.ar    1  UNL1        0.0443
     29 C         139.4252  139.0717  162.0632 C.ar    1  UNL1        0.1436
     30 F         138.6664  139.3956  160.8105 F       1  UNL1       -0.2041
     31 C         138.7943  138.2173  163.1225 C.ar    1  UNL1        0.0593
     32 C         139.5530  137.8934  164.3752 C.ar    1  UNL1        0.1436
     33 F         138.9221  137.0391  165.4345 F       1  UNL1       -0.2041
     34 C         140.9427  138.4239  164.5687 C.ar    1  UNL1        0.0443
@<TRIPOS>BOND
     1    24    23    1
     2    24     1    1
     3     1     2   ar
     4     2     3   ar
     5     3    18    1
     6    18    19    2
     7    18    20   am
     8    20    21    1
     9    20    22    1
    10     3     4   ar
    11     4     5   ar
    12     5     6   ar
    13     6     7    2
    14     6     8   ar
    15     8     9   ar
    16     9    12    1
    17    12    13    1
    18    13    14    1
    19    14    15    1
    20    15    16    1
    21    16    17    1
    22     9    10   ar
    23    10    11   ar
    24    24    25    1
    25    25    26    1
    26    25    27    1
    27    27    28   ar
    28    28    29   ar
    29    29    30    1
    30    29    31   ar
    31    31    32   ar
    32    32    33    1
    33    32    34   ar
    34    11     1   ar
    35    34    27   ar
    36    11     5   ar
    37    17    12    1
@<TRIPOS>MOLECULE
*****
 34 37 0 0 0
SMALL
GASTEIGER

@<TRIPOS>ATOM
      1 C         140.7296  142.4093  165.4078 C.ar    1  UNL1        0.0305
      2 C         140.8856  142.5438  166.8936 C.ar    1  UNL1        0.0049
      3 C         140.3382  141.4848  167.8040 C.ar    1  UNL1        0.0536
      4 C         139.6348  140.2914  167.2287 C.ar    1  UNL1        0.0107
      5 C         139.4788  140.1569  165.7429 C.ar    1  UNL1        0.0735
      6 C         138.7754  138.9635  165.1676 C.ar    1  UNL1        0.2030
      7 O         138.2280  137.9046  166.0780 O.2     1  UNL1       -0.2863
      8 C         138.6194  138.8291  163.6818 C.ar    1  UNL1        0.0955
      9 C         139.1668  139.8880  162.7713 C.ar    1  UNL1        0.2024
     10 O         139.8702  141.0815  163.3467 O.2     1  UNL1       -0.4400
     11 C         140.0262  141.2159  164.8325 C.ar    1  UNL1        0.1474
     12 N         139.0109  139.7536  161.2856 N.pl3   1  UNL1       -0.2742
     13 C         139.8601  138.7767  160.5276 C.3     1  UNL1        0.1257
     14 C         139.7041  138.6423  159.0418 C.3     1  UNL1        0.1637
     15 O         138.6989  139.4847  158.3140 O.3     1  UNL1       -0.3501
     16 C         137.8496  140.4615  159.0719 C.3     1  UNL1        0.1637
     17 C         138.0056  140.5960  160.5576 C.3     1  UNL1        0.1257
     18 C         140.4941  141.6193  169.2899 C.2     1  UNL1        0.2491
     19 O         139.4866  142.3982  170.0823 O.2     1  UNL1       -0.2699
     20 N         141.6577  140.9747  169.9832 N.am    1  UNL1       -0.2726
     21 C         141.8137  141.1091  171.4690 C.3     1  UNL1        0.1152
     22 C         142.6653  140.1957  169.1907 C.3     1  UNL1        0.1152
     23 C         140.4034  144.6066  164.0604 C.3     1  UNL1        0.0264
     24 C         141.2770  143.4683  164.4973 C.3     1  UNL1        0.0984
     25 N         142.6980  143.3889  164.0237 N.pl3   1  UNL1       -0.3034
     26 C         143.5711  144.6080  164.0633 C.3     1  UNL1        0.1124
     27 C         143.2461  142.0903  163.5105 C.ar    1  UNL1        0.0526
     28 C         142.9392  141.6476  162.1106 C.ar    1  UNL1        0.0443
     29 C         143.4872  140.3491  161.5973 C.ar    1  UNL1        0.1436
     30 F         143.1802  139.9065  160.1974 F       1  UNL1       -0.2041
     31 C         144.3422  139.4932  162.4841 C.ar    1  UNL1        0.0593
     32 C         144.6492  139.9358  163.8840 C.ar    1  UNL1        0.1436
     33 F         145.5043  139.0798  164.7707 F       1  UNL1       -0.2041
     34 C         144.1012  141.2344  164.3972 C.ar    1  UNL1        0.0443
@<TRIPOS>BOND
     1    24    23    1
     2    24     1    1
     3     1     2   ar
     4     2     3   ar
     5     3    18    1
     6    18    19    2
     7    18    20   am
     8    20    21    1
     9    20    22    1
    10     3     4   ar
    11     4     5   ar
    12     5     6   ar
    13     6     7    2
    14     6     8   ar
    15     8     9   ar
    16     9    12    1
    17    12    13    1
    18    13    14    1
    19    14    15    1
    20    15    16    1
    21    16    17    1
    22     9    10   ar
    23    10    11   ar
    24    24    25    1
    25    25    26    1
    26    25    27    1
    27    27    28   ar
    28    28    29   ar
    29    29    30    1
    30    29    31   ar
    31    31    32   ar
    32    32    33    1
    33    32    34   ar
    34    11     1   ar
    35    34    27   ar
    36    11     5   ar
    37    17    12    1
@<TRIPOS>MOLECULE
*****
 34 37 0 0 0
SMALL
GASTEIGER

@<TRIPOS>ATOM
      1 C         141.9625  141.3607  165.0681 C.ar    1  UNL1        0.0305
      2 C         141.7788  141.6285  166.5325 C.ar    1  UNL1        0.0049
      3 C         140.8835  140.7453  167.3500 C.ar    1  UNL1        0.0536
      4 C         140.1719  139.5942  166.7030 C.ar    1  UNL1        0.0107
      5 C         140.3555  139.3264  165.2386 C.ar    1  UNL1        0.0735
      6 C         139.6439  138.1753  164.5917 C.ar    1  UNL1        0.2030
      7 O         138.7485  137.2920  165.4091 O.2     1  UNL1       -0.2863
      8 C         139.8275  137.9074  163.1273 C.ar    1  UNL1        0.0955
      9 C         140.7229  138.7907  162.3098 C.ar    1  UNL1        0.2024
     10 O         141.4345  139.9418  162.9567 O.2     1  UNL1       -0.4400
     11 C         141.2508  140.2096  164.4212 C.ar    1  UNL1        0.1474
     12 N         140.9065  138.5229  160.8454 N.pl3   1  UNL1       -0.2742
     13 C         142.2673  138.1912  160.3085 C.3     1  UNL1        0.1257
     14 C         142.4509  137.9234  158.8440 C.3     1  UNL1        0.1637
     15 O         141.2738  137.9872  157.9165 O.3     1  UNL1       -0.3501
     16 C         139.9130  138.3188  158.4534 C.3     1  UNL1        0.1637
     17 C         139.7293  138.5867  159.9178 C.3     1  UNL1        0.1257
     18 C         140.6998  141.0131  168.8144 C.2     1  UNL1        0.2491
     19 O         139.6759  142.0092  169.2721 O.2     1  UNL1       -0.2699
     20 N         141.5401  140.2848  169.8212 N.am    1  UNL1       -0.2726
     21 C         141.3564  140.5526  171.2856 C.3     1  UNL1        0.1152
     22 C         142.5640  139.2887  169.3635 C.3     1  UNL1        0.1152
     23 C         144.3188  141.9259  164.1309 C.3     1  UNL1        0.0264
     24 C         142.8578  142.2440  164.2506 C.3     1  UNL1        0.0984
     25 N         142.2922  143.4453  163.5529 N.pl3   1  UNL1       -0.3034
     26 C         143.2027  144.3830  162.8169 C.3     1  UNL1        0.1124
     27 C         140.8160  143.7089  163.5911 C.ar    1  UNL1        0.0526
     28 C         140.2185  144.4638  164.7413 C.ar    1  UNL1        0.0443
     29 C         138.7423  144.7274  164.7796 C.ar    1  UNL1        0.1436
     30 F         138.1448  145.4824  165.9298 F       1  UNL1       -0.2041
     31 C         137.8637  144.2361  163.6676 C.ar    1  UNL1        0.0593
     32 C         138.4612  143.4812  162.5173 C.ar    1  UNL1        0.1436
     33 F         137.5825  142.9898  161.4053 F       1  UNL1       -0.2041
     34 C         139.9373  143.2175  162.4791 C.ar    1  UNL1        0.0443
@<TRIPOS>BOND
     1    24    23    1
     2    24     1    1
     3     1     2   ar
     4     2     3   ar
     5     3    18    1
     6    18    19    2
     7    18    20   am
     8    20    21    1
     9    20    22    1
    10     3     4   ar
    11     4     5   ar
    12     5     6   ar
    13     6     7    2
    14     6     8   ar
    15     8     9   ar
    16     9    12    1
    17    12    13    1
    18    13    14    1
    19    14    15    1
    20    15    16    1
    21    16    17    1
    22     9    10   ar
    23    10    11   ar
    24    24    25    1
    25    25    26    1
    26    25    27    1
    27    27    28   ar
    28    28    29   ar
    29    29    30    1
    30    29    31   ar
    31    31    32   ar
    32    32    33    1
    33    32    34   ar
    34    11     1   ar
    35    34    27   ar
    36    11     5   ar
    37    17    12    1
