@<TRIPOS>MOLECULE
*****
 28 32 0 0 0
SMALL
GASTEIGER

@<TRIPOS>ATOM
      1 C         138.5834  138.7462  163.3957 C.ar    1  UNL1       -0.0059
      2 C         138.9852  138.0427  162.1333 C.ar    1  UNL1        0.0002
      3 C         138.7622  138.7013  160.8041 C.ar    1  UNL1        0.0373
      4 C         138.1373  140.0633  160.7374 C.ar    1  UNL1        0.1477
      5 C         137.7355  140.7668  161.9999 C.ar    1  UNL1        0.0373
      6 C         137.9585  140.1082  163.3290 C.ar    1  UNL1        0.0002
      7 C         138.8064  138.0876  164.7249 C.3     1  UNL1        0.0992
      8 C         142.6231  142.8865  170.5635 C.3     1  UNL1        0.0948
      9 C         141.2958  142.1917  170.6385 C.2     1  UNL1        0.2261
     10 O         140.4589  142.3051  171.8781 O.2     1  UNL1       -0.2749
     11 N         140.8056  141.3834  169.4738 N.am    1  UNL1       -0.2794
     12 C         139.5065  140.6367  169.4033 C.3     1  UNL1        0.0948
     13 C         139.4263  139.9718  168.0611 C.3     1  UNL1        0.0388
     14 C         138.5740  139.0994  167.1880 C.3     1  UNL1        0.0741
     15 N         139.2967  138.8959  165.8895 N.3     1  UNL1       -0.2688
     16 C         140.5957  139.6425  165.9600 C.3     1  UNL1        0.0741
     17 C         140.6758  140.3075  167.3022 C.3     1  UNL1        0.0388
     18 C         141.5283  141.1799  168.1753 C.3     1  UNL1        0.0948
     19 O         137.9143  140.7219  159.4083 O.3     1  UNL1       -0.4313
     20 C         138.8407  141.8063  158.9438 C.ar    1  UNL1        0.2642
     21 N         138.8704  143.2177  159.4509 N.ar    1  UNL1       -0.1859
     22 C         139.9481  143.9535  158.7110 C.ar    1  UNL1        0.1720
     23 N         140.4322  145.3709  158.7909 N.ar    1  UNL1       -0.2245
     24 C         141.5526  145.8317  157.9064 C.ar    1  UNL1        0.1006
     25 C         142.1889  144.8750  156.9421 C.ar    1  UNL1        0.0213
     26 C         141.7048  143.4576  156.8622 C.ar    1  UNL1        0.0113
     27 C         140.5844  142.9968  157.7467 C.ar    1  UNL1        0.0697
     28 S         139.9000  141.6698  157.8906 S.2     1  UNL1       -0.0267
@<TRIPOS>BOND
     1     8     9    1
     2     9    10    2
     3     9    11   am
     4    11    12    1
     5    12    13    1
     6    13    14    1
     7    14    15    1
     8    15     7    1
     9     7     1    1
    10     1     2   ar
    11     2     3   ar
    12     3     4   ar
    13     4    19    1
    14    19    20    1
    15    20    21   ar
    16    21    22   ar
    17    22    23   ar
    18    23    24   ar
    19    24    25   ar
    20    25    26   ar
    21    26    27   ar
    22    27    28   ar
    23     4     5   ar
    24     5     6   ar
    25    15    16    1
    26    16    17    1
    27    17    18    1
    28    18    11    1
    29    17    13    1
    30     6     1   ar
    31    28    20   ar
    32    27    22   ar
@<TRIPOS>MOLECULE
*****
 28 32 0 0 0
SMALL
GASTEIGER

@<TRIPOS>ATOM
      1 C         139.5307  138.5300  163.1254 C.ar    1  UNL1       -0.0059
      2 C         138.9637  139.5933  162.2322 C.ar    1  UNL1        0.0002
      3 C         139.5912  139.8643  160.8969 C.ar    1  UNL1        0.0373
      4 C         140.7858  139.0720  160.4549 C.ar    1  UNL1        0.1477
      5 C         141.3528  138.0086  161.3482 C.ar    1  UNL1        0.0373
      6 C         140.7252  137.7377  162.6834 C.ar    1  UNL1        0.0002
      7 C         138.9032  138.2590  164.4606 C.3     1  UNL1        0.0992
      8 C         142.5193  142.8543  170.5838 C.3     1  UNL1        0.0948
      9 C         141.2126  142.1181  170.6077 C.2     1  UNL1        0.2261
     10 O         140.3607  142.1418  171.8420 O.2     1  UNL1       -0.2749
     11 N         140.7578  141.3580  169.3970 N.am    1  UNL1       -0.2794
     12 C         139.4822  140.5785  169.2731 C.3     1  UNL1        0.0948
     13 C         139.4347  139.9828  167.8973 C.3     1  UNL1        0.0388
     14 C         138.6171  139.1329  166.9704 C.3     1  UNL1        0.0741
     15 N         139.3580  139.0190  165.6712 N.3     1  UNL1       -0.2688
     16 C         140.6336  139.7985  165.7951 C.3     1  UNL1        0.0741
     17 C         140.6809  140.3941  167.1709 C.3     1  UNL1        0.0388
     18 C         141.4987  141.2441  168.0978 C.3     1  UNL1        0.0948
     19 O         141.4133  139.3429  159.1198 O.3     1  UNL1       -0.4313
     20 C         141.6903  138.2093  158.1773 C.ar    1  UNL1        0.2642
     21 N         142.9606  137.4152  158.1026 N.ar    1  UNL1       -0.1859
     22 C         142.8010  136.3859  157.0232 C.ar    1  UNL1        0.1720
     23 N         143.7254  135.3252  156.5032 N.ar    1  UNL1       -0.2245
     24 C         143.2808  134.4225  155.3908 C.ar    1  UNL1        0.1006
     25 C         141.9118  134.5805  154.7985 C.ar    1  UNL1        0.0213
     26 C         140.9874  135.6412  155.3184 C.ar    1  UNL1        0.0113
     27 C         141.4321  136.5439  156.4308 C.ar    1  UNL1        0.0697
     28 S         140.7456  137.6708  157.1441 S.2     1  UNL1       -0.0267
@<TRIPOS>BOND
     1     8     9    1
     2     9    10    2
     3     9    11   am
     4    11    12    1
     5    12    13    1
     6    13    14    1
     7    14    15    1
     8    15     7    1
     9     7     1    1
    10     1     2   ar
    11     2     3   ar
    12     3     4   ar
    13     4    19    1
    14    19    20    1
    15    20    21   ar
    16    21    22   ar
    17    22    23   ar
    18    23    24   ar
    19    24    25   ar
    20    25    26   ar
    21    26    27   ar
    22    27    28   ar
    23     4     5   ar
    24     5     6   ar
    25    15    16    1
    26    16    17    1
    27    17    18    1
    28    18    11    1
    29    17    13    1
    30     6     1   ar
    31    28    20   ar
    32    27    22   ar
@<TRIPOS>MOLECULE
*****
 28 32 0 0 0
SMALL
GASTEIGER

@<TRIPOS>ATOM
      1 C         138.7216  139.0133  162.8133 C.ar    1  UNL1       -0.0059
      2 C         139.1055  137.7843  163.5828 C.ar    1  UNL1        0.0002
      3 C         138.9654  137.7601  165.0761 C.ar    1  UNL1        0.0373
      4 C         138.4414  138.9650  165.7998 C.ar    1  UNL1        0.1477
      5 C         138.0575  140.1940  165.0302 C.ar    1  UNL1        0.0373
      6 C         138.1976  140.2181  163.5370 C.ar    1  UNL1        0.0002
      7 C         138.8617  139.0375  161.3200 C.3     1  UNL1        0.0992
      8 C         140.1224  146.1208  156.8564 C.3     1  UNL1        0.0948
      9 C         141.0561  145.4276  157.8038 C.2     1  UNL1        0.2261
     10 O         142.4219  145.9927  158.0588 O.2     1  UNL1       -0.2749
     11 N         140.6239  144.1691  158.4963 N.am    1  UNL1       -0.2794
     12 C         141.4439  143.3695  159.4649 C.3     1  UNL1        0.0948
     13 C         140.6227  142.1955  159.9090 C.3     1  UNL1        0.0388
     14 C         140.6219  140.9758  160.7821 C.3     1  UNL1        0.0741
     15 N         139.2939  140.2959  160.6275 N.3     1  UNL1       -0.2688
     16 C         138.4738  141.0954  159.6589 C.3     1  UNL1        0.0741
     17 C         139.2951  142.2694  159.2148 C.3     1  UNL1        0.0388
     18 C         139.2958  143.4892  158.3417 C.3     1  UNL1        0.0948
     19 O         138.3013  138.9408  167.2930 O.3     1  UNL1       -0.4313
     20 C         139.2239  139.7598  168.1462 C.ar    1  UNL1        0.2642
     21 N         139.1313  139.9293  169.6337 N.ar    1  UNL1       -0.1859
     22 C         140.2513  140.8274  170.0686 C.ar    1  UNL1        0.1720
     23 N         140.6579  141.3438  171.4169 N.ar    1  UNL1       -0.2245
     24 C         141.8493  142.2459  171.5464 C.ar    1  UNL1        0.1006
     25 C         142.6341  142.6315  170.3276 C.ar    1  UNL1        0.0213
     26 C         142.2275  142.1150  168.9793 C.ar    1  UNL1        0.0113
     27 C         141.0361  141.2130  168.8498 C.ar    1  UNL1        0.0697
     28 S         140.4011  140.5532  167.6618 S.2     1  UNL1       -0.0267
@<TRIPOS>BOND
     1     8     9    1
     2     9    10    2
     3     9    11   am
     4    11    12    1
     5    12    13    1
     6    13    14    1
     7    14    15    1
     8    15     7    1
     9     7     1    1
    10     1     2   ar
    11     2     3   ar
    12     3     4   ar
    13     4    19    1
    14    19    20    1
    15    20    21   ar
    16    21    22   ar
    17    22    23   ar
    18    23    24   ar
    19    24    25   ar
    20    25    26   ar
    21    26    27   ar
    22    27    28   ar
    23     4     5   ar
    24     5     6   ar
    25    15    16    1
    26    16    17    1
    27    17    18    1
    28    18    11    1
    29    17    13    1
    30     6     1   ar
    31    28    20   ar
    32    27    22   ar
@<TRIPOS>MOLECULE
*****
 28 32 0 0 0
SMALL
GASTEIGER

@<TRIPOS>ATOM
      1 C         143.5868  139.0780  162.9989 C.ar    1  UNL1       -0.0059
      2 C         144.1020  139.9566  161.8977 C.ar    1  UNL1        0.0002
      3 C         143.4240  139.9574  160.5595 C.ar    1  UNL1        0.0373
      4 C         142.2309  139.0796  160.3228 C.ar    1  UNL1        0.1477
      5 C         141.7158  138.2010  161.4241 C.ar    1  UNL1        0.0373
      6 C         142.3938  138.2002  162.7621 C.ar    1  UNL1        0.0002
      7 C         144.2648  139.0772  164.3370 C.3     1  UNL1        0.0992
      8 C         140.0079  143.0580  170.4785 C.3     1  UNL1        0.0948
      9 C         140.5772  141.6702  170.4762 C.2     1  UNL1        0.2261
     10 O         140.4203  140.7932  171.6828 O.2     1  UNL1       -0.2749
     11 N         141.3034  141.1596  169.2670 N.am    1  UNL1       -0.2794
     12 C         141.9230  139.8015  169.1189 C.3     1  UNL1        0.0948
     13 C         142.5401  139.7199  167.7542 C.3     1  UNL1        0.0388
     14 C         143.3043  138.8302  166.8192 C.3     1  UNL1        0.0741
     15 N         143.5386  139.5879  165.5460 N.3     1  UNL1       -0.2688
     16 C         142.9190  140.9459  165.6941 C.3     1  UNL1        0.0741
     17 C         142.3020  141.0275  167.0589 C.3     1  UNL1        0.0388
     18 C         141.5377  141.9173  167.9939 C.3     1  UNL1        0.0948
     19 O         141.5530  139.0804  158.9847 O.3     1  UNL1       -0.4313
     20 C         141.7918  137.9549  158.0223 C.ar    1  UNL1        0.2642
     21 N         142.9907  137.0537  157.9994 N.ar    1  UNL1       -0.1859
     22 C         142.8135  136.0749  156.8767 C.ar    1  UNL1        0.1720
     23 N         143.6746  134.9521  156.3788 N.ar    1  UNL1       -0.2245
     24 C         143.2272  134.1256  155.2097 C.ar    1  UNL1        0.1006
     25 C         141.9188  134.4219  154.5386 C.ar    1  UNL1        0.0213
     26 C         141.0578  135.5447  155.0366 C.ar    1  UNL1        0.0113
     27 C         141.5051  136.3712  156.2056 C.ar    1  UNL1        0.0697
     28 S         140.8737  137.5331  156.9136 S.2     1  UNL1       -0.0267
@<TRIPOS>BOND
     1     8     9    1
     2     9    10    2
     3     9    11   am
     4    11    12    1
     5    12    13    1
     6    13    14    1
     7    14    15    1
     8    15     7    1
     9     7     1    1
    10     1     2   ar
    11     2     3   ar
    12     3     4   ar
    13     4    19    1
    14    19    20    1
    15    20    21   ar
    16    21    22   ar
    17    22    23   ar
    18    23    24   ar
    19    24    25   ar
    20    25    26   ar
    21    26    27   ar
    22    27    28   ar
    23     4     5   ar
    24     5     6   ar
    25    15    16    1
    26    16    17    1
    27    17    18    1
    28    18    11    1
    29    17    13    1
    30     6     1   ar
    31    28    20   ar
    32    27    22   ar
@<TRIPOS>MOLECULE
*****
 28 32 0 0 0
SMALL
GASTEIGER

@<TRIPOS>ATOM
      1 C         140.0796  139.1347  157.4895 C.ar    1  UNL1       -0.0059
      2 C         140.2035  138.4140  158.7992 C.ar    1  UNL1        0.0002
      3 C         139.2881  138.7611  159.9358 C.ar    1  UNL1        0.0373
      4 C         138.2489  139.8289  159.7626 C.ar    1  UNL1        0.1477
      5 C         138.1251  140.5495  158.4528 C.ar    1  UNL1        0.0373
      6 C         139.0404  140.2024  157.3164 C.ar    1  UNL1        0.0002
      7 C         140.9949  138.7876  156.3529 C.3     1  UNL1        0.0992
      8 C         144.9768  131.3186  156.1412 C.3     1  UNL1        0.0948
      9 C         143.6195  131.6760  155.6122 C.2     1  UNL1        0.2261
     10 O         142.7790  130.6329  154.9373 O.2     1  UNL1       -0.2749
     11 N         143.1026  133.0766  155.7581 N.am    1  UNL1       -0.2794
     12 C         141.7722  133.5795  155.2815 C.3     1  UNL1        0.0948
     13 C         141.6727  135.0339  155.6350 C.3     1  UNL1        0.0388
     14 C         140.7890  136.2436  155.5590 C.3     1  UNL1        0.0741
     15 N         141.5118  137.3871  156.2071 N.3     1  UNL1       -0.2688
     16 C         142.8422  136.8841  156.6836 C.3     1  UNL1        0.0741
     17 C         142.9416  135.4298  156.3301 C.3     1  UNL1        0.0388
     18 C         143.8254  134.2201  156.4062 C.3     1  UNL1        0.0948
     19 O         137.3336  140.1760  160.8991 O.3     1  UNL1       -0.4313
     20 C         137.7851  141.1363  161.9593 C.ar    1  UNL1        0.2642
     21 N         137.5763  142.6216  161.9502 N.ar    1  UNL1       -0.1859
     22 C         138.1868  143.1832  163.2000 C.ar    1  UNL1        0.1720
     23 N         138.2847  144.5840  163.7274 N.ar    1  UNL1       -0.2245
     24 C         138.9687  144.8464  165.0363 C.ar    1  UNL1        0.1006
     25 C         139.5548  143.7081  165.8178 C.ar    1  UNL1        0.0213
     26 C         139.4568  142.3073  165.2904 C.ar    1  UNL1        0.0113
     27 C         138.7728  142.0449  163.9815 C.ar    1  UNL1        0.0697
     28 S         138.5246  140.7798  163.2147 S.2     1  UNL1       -0.0267
@<TRIPOS>BOND
     1     8     9    1
     2     9    10    2
     3     9    11   am
     4    11    12    1
     5    12    13    1
     6    13    14    1
     7    14    15    1
     8    15     7    1
     9     7     1    1
    10     1     2   ar
    11     2     3   ar
    12     3     4   ar
    13     4    19    1
    14    19    20    1
    15    20    21   ar
    16    21    22   ar
    17    22    23   ar
    18    23    24   ar
    19    24    25   ar
    20    25    26   ar
    21    26    27   ar
    22    27    28   ar
    23     4     5   ar
    24     5     6   ar
    25    15    16    1
    26    16    17    1
    27    17    18    1
    28    18    11    1
    29    17    13    1
    30     6     1   ar
    31    28    20   ar
    32    27    22   ar
@<TRIPOS>MOLECULE
*****
 28 32 0 0 0
SMALL
GASTEIGER

@<TRIPOS>ATOM
      1 C         138.4004  138.0096  153.6204 C.ar    1  UNL1       -0.0059
      2 C         138.9631  139.2972  154.1451 C.ar    1  UNL1        0.0002
      3 C         138.0735  140.2654  154.8672 C.ar    1  UNL1        0.0373
      4 C         136.6213  139.9460  155.0645 C.ar    1  UNL1        0.1477
      5 C         136.0586  138.6583  154.5397 C.ar    1  UNL1        0.0373
      6 C         136.9481  137.6901  153.8177 C.ar    1  UNL1        0.0002
      7 C         139.2899  137.0414  152.8984 C.3     1  UNL1        0.0992
      8 C         144.8813  131.5950  156.1787 C.3     1  UNL1        0.0948
      9 C         144.2906  132.8253  156.8010 C.2     1  UNL1        0.2261
     10 O         144.6846  133.2253  158.1919 O.2     1  UNL1       -0.2749
     11 N         143.3057  133.6556  156.0324 N.am    1  UNL1       -0.2794
     12 C         142.6349  134.9052  156.5210 C.3     1  UNL1        0.0948
     13 C         141.7334  135.4040  155.4308 C.3     1  UNL1        0.0388
     14 C         140.7617  136.4845  155.0591 C.3     1  UNL1        0.0741
     15 N         140.2747  136.2111  153.6669 N.3     1  UNL1       -0.2688
     16 C         140.9455  134.9615  153.1783 C.3     1  UNL1        0.0741
     17 C         141.8470  134.4628  154.2685 C.3     1  UNL1        0.0388
     18 C         142.8188  133.3822  154.6402 C.3     1  UNL1        0.0948
     19 O         135.7317  140.9141  155.7864 O.3     1  UNL1       -0.4313
     20 C         134.3570  140.4937  156.2147 C.ar    1  UNL1        0.2642
     21 N         134.0341  139.5016  157.2924 N.ar    1  UNL1       -0.1859
     22 C         132.5413  139.3862  157.3842 C.ar    1  UNL1        0.1720
     23 N         131.6507  138.5617  158.2656 N.ar    1  UNL1       -0.2245
     24 C         130.1603  138.6580  158.1259 C.ar    1  UNL1        0.1006
     25 C         129.5606  139.5788  157.1049 C.ar    1  UNL1        0.0213
     26 C         130.4513  140.4033  156.2235 C.ar    1  UNL1        0.0113
     27 C         131.9416  140.3070  156.3632 C.ar    1  UNL1        0.0697
     28 S         133.0638  140.9914  155.6404 S.2     1  UNL1       -0.0267
@<TRIPOS>BOND
     1     8     9    1
     2     9    10    2
     3     9    11   am
     4    11    12    1
     5    12    13    1
     6    13    14    1
     7    14    15    1
     8    15     7    1
     9     7     1    1
    10     1     2   ar
    11     2     3   ar
    12     3     4   ar
    13     4    19    1
    14    19    20    1
    15    20    21   ar
    16    21    22   ar
    17    22    23   ar
    18    23    24   ar
    19    24    25   ar
    20    25    26   ar
    21    26    27   ar
    22    27    28   ar
    23     4     5   ar
    24     5     6   ar
    25    15    16    1
    26    16    17    1
    27    17    18    1
    28    18    11    1
    29    17    13    1
    30     6     1   ar
    31    28    20   ar
    32    27    22   ar
@<TRIPOS>MOLECULE
*****
 28 32 0 0 0
SMALL
GASTEIGER

@<TRIPOS>ATOM
      1 C         141.7680  137.5069  157.2091 C.ar    1  UNL1       -0.0059
      2 C         141.6368  138.1198  158.5719 C.ar    1  UNL1        0.0002
      3 C         140.4317  138.9469  158.9094 C.ar    1  UNL1        0.0373
      4 C         139.3579  139.1610  157.8842 C.ar    1  UNL1        0.1477
      5 C         139.4892  138.5481  156.5214 C.ar    1  UNL1        0.0373
      6 C         140.6942  137.7210  156.1839 C.ar    1  UNL1        0.0002
      7 C         142.9730  136.6798  156.8716 C.3     1  UNL1        0.0992
      8 C         142.9617  128.2138  156.7595 C.3     1  UNL1        0.0948
      9 C         142.2667  129.1675  155.8335 C.2     1  UNL1        0.2261
     10 O         141.4327  128.6417  154.7031 O.2     1  UNL1       -0.2749
     11 N         142.4058  130.6470  156.0380 N.am    1  UNL1       -0.2794
     12 C         141.7734  131.7165  155.1976 C.3     1  UNL1        0.0948
     13 C         142.1785  133.0472  155.7589 C.3     1  UNL1        0.0388
     14 C         142.0380  134.5306  155.5864 C.3     1  UNL1        0.0741
     15 N         142.8339  135.2004  156.6671 N.3     1  UNL1       -0.2688
     16 C         143.4663  134.1308  157.5075 C.3     1  UNL1        0.0741
     17 C         143.0612  132.8002  156.9462 C.3     1  UNL1        0.0388
     18 C         143.2018  131.3167  157.1187 C.3     1  UNL1        0.0948
     19 O         138.1529  139.9881  158.2217 O.3     1  UNL1       -0.4313
     20 C         138.1080  140.7578  159.5084 C.ar    1  UNL1        0.2642
     21 N         138.4766  142.2009  159.6859 N.ar    1  UNL1       -0.1859
     22 C         138.2829  142.5545  161.1307 C.ar    1  UNL1        0.1720
     23 N         138.4881  143.8334  161.8872 N.ar    1  UNL1       -0.2245
     24 C         138.2050  143.8876  163.3592 C.ar    1  UNL1        0.1006
     25 C         137.7167  142.6630  164.0747 C.ar    1  UNL1        0.0213
     26 C         137.5115  141.3842  163.3182 C.ar    1  UNL1        0.0113
     27 C         137.7946  141.3299  161.8461 C.ar    1  UNL1        0.0697
     28 S         137.6865  140.2195  160.8435 S.2     1  UNL1       -0.0267
@<TRIPOS>BOND
     1     8     9    1
     2     9    10    2
     3     9    11   am
     4    11    12    1
     5    12    13    1
     6    13    14    1
     7    14    15    1
     8    15     7    1
     9     7     1    1
    10     1     2   ar
    11     2     3   ar
    12     3     4   ar
    13     4    19    1
    14    19    20    1
    15    20    21   ar
    16    21    22   ar
    17    22    23   ar
    18    23    24   ar
    19    24    25   ar
    20    25    26   ar
    21    26    27   ar
    22    27    28   ar
    23     4     5   ar
    24     5     6   ar
    25    15    16    1
    26    16    17    1
    27    17    18    1
    28    18    11    1
    29    17    13    1
    30     6     1   ar
    31    28    20   ar
    32    27    22   ar
@<TRIPOS>MOLECULE
*****
 28 32 0 0 0
SMALL
GASTEIGER

@<TRIPOS>ATOM
      1 C         142.1173  137.4241  157.4745 C.ar    1  UNL1       -0.0059
      2 C         142.5331  137.9545  158.8145 C.ar    1  UNL1        0.0002
      3 C         141.5781  138.7821  159.6228 C.ar    1  UNL1        0.0373
      4 C         140.2074  139.0792  159.0909 C.ar    1  UNL1        0.1477
      5 C         139.7916  138.5487  157.7508 C.ar    1  UNL1        0.0373
      6 C         140.7466  137.7212  156.9426 C.ar    1  UNL1        0.0002
      7 C         143.0723  136.5965  156.6662 C.3     1  UNL1        0.0992
      8 C         140.6349  128.7991  154.4420 C.3     1  UNL1        0.0948
      9 C         141.6438  129.2109  155.4728 C.2     1  UNL1        0.2261
     10 O         142.3714  128.1682  156.2685 O.2     1  UNL1       -0.2749
     11 N         141.9251  130.6655  155.7078 N.am    1  UNL1       -0.2794
     12 C         142.9016  131.2257  156.6991 C.3     1  UNL1        0.0948
     13 C         142.8593  132.7216  156.5968 C.3     1  UNL1        0.0388
     14 C         143.4367  133.9923  157.1461 C.3     1  UNL1        0.0741
     15 N         142.7909  135.1420  156.4312 N.3     1  UNL1       -0.2688
     16 C         141.8144  134.5818  155.4399 C.3     1  UNL1        0.0741
     17 C         141.8568  133.0859  155.5423 C.3     1  UNL1        0.0388
     18 C         141.2793  131.8151  154.9928 C.3     1  UNL1        0.0948
     19 O         139.2524  139.9067  159.8991 O.3     1  UNL1       -0.4313
     20 C         139.0216  139.5865  161.3462 C.ar    1  UNL1        0.2642
     21 N         139.1437  138.2324  161.9800 N.ar    1  UNL1       -0.1859
     22 C         138.8256  138.3732  163.4391 C.ar    1  UNL1        0.1720
     23 N         138.7850  137.3753  164.5583 N.ar    1  UNL1       -0.2245
     24 C         138.4257  137.8185  165.9455 C.ar    1  UNL1        0.1006
     25 C         138.1071  139.2595  166.2136 C.ar    1  UNL1        0.0213
     26 C         138.1477  140.2574  165.0944 C.ar    1  UNL1        0.0113
     27 C         138.5069  139.8142  163.7072 C.ar    1  UNL1        0.0697
     28 S         138.6281  140.5640  162.4137 S.2     1  UNL1       -0.0267
@<TRIPOS>BOND
     1     8     9    1
     2     9    10    2
     3     9    11   am
     4    11    12    1
     5    12    13    1
     6    13    14    1
     7    14    15    1
     8    15     7    1
     9     7     1    1
    10     1     2   ar
    11     2     3   ar
    12     3     4   ar
    13     4    19    1
    14    19    20    1
    15    20    21   ar
    16    21    22   ar
    17    22    23   ar
    18    23    24   ar
    19    24    25   ar
    20    25    26   ar
    21    26    27   ar
    22    27    28   ar
    23     4     5   ar
    24     5     6   ar
    25    15    16    1
    26    16    17    1
    27    17    18    1
    28    18    11    1
    29    17    13    1
    30     6     1   ar
    31    28    20   ar
    32    27    22   ar
@<TRIPOS>MOLECULE
*****
 28 32 0 0 0
SMALL
GASTEIGER

@<TRIPOS>ATOM
      1 C         140.2361  138.8952  159.1778 C.ar    1  UNL1       -0.0059
      2 C         139.9658  138.4216  157.7805 C.ar    1  UNL1        0.0002
      3 C         140.9980  137.6157  157.0488 C.ar    1  UNL1        0.0373
      4 C         142.3004  137.2834  157.7146 C.ar    1  UNL1        0.1477
      5 C         142.5707  137.7570  159.1120 C.ar    1  UNL1        0.0373
      6 C         141.5385  138.5629  159.8436 C.ar    1  UNL1        0.0002
      7 C         139.2039  139.7010  159.9095 C.3     1  UNL1        0.0992
      8 C         140.2819  141.0570  168.1972 C.3     1  UNL1        0.0948
      9 C         139.3624  140.0882  167.5145 C.2     1  UNL1        0.2261
     10 O         138.4742  139.1957  168.3296 O.2     1  UNL1       -0.2749
     11 N         139.3312  140.0120  166.0167 N.am    1  UNL1       -0.2794
     12 C         138.4685  139.0978  165.1982 C.3     1  UNL1        0.0948
     13 C         138.7613  139.3573  163.7502 C.3     1  UNL1        0.0388
     14 C         138.4091  138.9527  162.3494 C.3     1  UNL1        0.0741
     15 N         139.2351  139.7773  161.4072 N.3     1  UNL1       -0.2688
     16 C         140.0979  140.6915  162.2257 C.3     1  UNL1        0.0741
     17 C         139.8050  140.4319  163.6737 C.3     1  UNL1        0.0388
     18 C         140.1572  140.8366  165.0746 C.3     1  UNL1        0.0948
     19 O         143.3326  136.4776  156.9830 O.3     1  UNL1       -0.4313
     20 C         143.1146  135.0115  156.7527 C.ar    1  UNL1        0.2642
     21 N         142.1601  134.4063  155.7665 N.ar    1  UNL1       -0.1859
     22 C         142.2685  132.9139  155.8724 C.ar    1  UNL1        0.1720
     23 N         141.5690  131.8028  155.1471 N.ar    1  UNL1       -0.2245
     24 C         141.8910  130.3746  155.4734 C.ar    1  UNL1        0.1006
     25 C         142.9125  130.0576  156.5250 C.ar    1  UNL1        0.0213
     26 C         143.6120  131.1686  157.2503 C.ar    1  UNL1        0.0113
     27 C         143.2900  132.5968  156.9240 C.ar    1  UNL1        0.0697
     28 S         143.8129  133.8932  157.4680 S.2     1  UNL1       -0.0267
@<TRIPOS>BOND
     1     8     9    1
     2     9    10    2
     3     9    11   am
     4    11    12    1
     5    12    13    1
     6    13    14    1
     7    14    15    1
     8    15     7    1
     9     7     1    1
    10     1     2   ar
    11     2     3   ar
    12     3     4   ar
    13     4    19    1
    14    19    20    1
    15    20    21   ar
    16    21    22   ar
    17    22    23   ar
    18    23    24   ar
    19    24    25   ar
    20    25    26   ar
    21    26    27   ar
    22    27    28   ar
    23     4     5   ar
    24     5     6   ar
    25    15    16    1
    26    16    17    1
    27    17    18    1
    28    18    11    1
    29    17    13    1
    30     6     1   ar
    31    28    20   ar
    32    27    22   ar
