@<TRIPOS>MOLECULE
*****
 42 47 0 0 0
SMALL
GASTEIGER

@<TRIPOS>ATOM
      1 N         144.1024  142.0384  160.5041 N.pl3   1  UNL1       -0.2801
      2 H         145.0050  141.9858  160.1145 H       1  UNL1        0.1552
      3 C         143.2995  142.1406  162.9730 C.ar    1  UNL1        0.1477
      4 C         143.8048  141.3496  161.8029 C.ar    1  UNL1        0.0846
      5 C         144.0126  139.8696  161.9317 C.ar    1  UNL1        0.0174
      6 C         143.7150  139.1807  163.2305 C.ar    1  UNL1       -0.0031
      7 C         143.2097  139.9718  164.4006 C.ar    1  UNL1       -0.0231
      8 C         143.0020  141.4516  164.2717 C.ar    1  UNL1        0.0091
      9 C         142.5101  142.4206  165.3058 C.3     1  UNL1        0.0305
     10 C         142.1044  142.1487  166.7242 C.3     1  UNL1        0.0207
     11 C         142.0905  140.8410  167.4586 C.3     1  UNL1        0.0583
     12 C         142.4787  139.4819  166.9562 C.3     1  UNL1        0.0206
     13 C         142.9768  139.0951  165.5952 C.3     1  UNL1        0.0275
     14 N         141.6269  140.8999  168.8840 N.3     1  UNL1       -0.2697
     15 C         142.2599  141.8680  169.8391 C.3     1  UNL1        0.1046
     16 C         141.7964  141.9270  171.2645 C.3     1  UNL1        0.1595
     17 O         140.6999  141.0178  171.7347 O.3     1  UNL1       -0.3508
     18 C         140.0669  140.0497  170.7797 C.3     1  UNL1        0.1595
     19 C         140.5304  139.9908  169.3543 C.3     1  UNL1        0.1046
     20 C         144.2670  144.5508  162.9030 C.3     1  UNL1        0.2525
     21 O         143.0918  143.6206  162.8442 O.3     1  UNL1       -0.4705
     22 C         143.0247  142.8074  159.7990 C.ar    1  UNL1        0.2219
     23 N         143.3781  143.7328  158.6725 N.ar    1  UNL1       -0.2110
     24 C         142.3005  144.5018  157.9674 C.ar    1  UNL1        0.1160
     25 C         140.8693  144.3455  158.3887 C.ar    1  UNL1        0.1082
     26 CL        139.7916  145.1145  157.6835 Cl      1  UNL1       -0.0777
     27 C         140.5158  143.4201  159.5151 C.ar    1  UNL1        0.1435
     28 N         141.5935  142.6511  160.2203 N.ar    1  UNL1       -0.1979
     29 N         139.0848  143.2637  159.9364 N.pl3   1  UNL1       -0.3181
     30 H         138.3772  143.1857  159.2564 H       1  UNL1        0.1482
     31 C         138.7318  143.2262  161.3937 C.3     1  UNL1        0.0832
     32 C         139.0206  144.3015  162.3989 C.3     1  UNL1        0.0984
     33 C         138.4953  143.8467  163.7282 C.3     1  UNL1        0.0323
     34 C         137.7914  142.7273  164.4364 C.2     1  UNL1       -0.0304
     35 C         137.5025  141.6520  163.4312 C.2     1  UNL1       -0.0294
     36 C         138.0279  142.1068  162.1019 C.3     1  UNL1        0.0404
     37 C         138.6415  143.4633  162.2855 C.3     1  UNL1        0.0109
     38 C         139.7133  145.6032  162.1231 C.2     1  UNL1        0.2208
     39 N         140.9978  145.9325  162.8242 N.am    1  UNL1       -0.3288
     40 O         139.1214  146.5755  161.1462 O.2     1  UNL1       -0.2753
     41 H         141.3863  145.2944  163.4654 H       1  UNL1        0.1449
     42 H         141.4524  146.7868  162.6432 H       1  UNL1        0.1449
@<TRIPOS>BOND
     1    20    21    1
     2    21     3    1
     3     3     4   ar
     4     4     1    1
     5     1    22    1
     6    22    23   ar
     7    23    24   ar
     8    24    25   ar
     9    25    26    1
    10    25    27   ar
    11    27    29    1
    12    31    29    1
    13    31    32    1
    14    32    38    1
    15    38    39   am
    16    38    40    2
    17    32    33    1
    18    33    34    1
    19    34    35    2
    20    36    35    1
    21    36    37    1
    22    27    28   ar
    23     4     5   ar
    24     5     6   ar
    25     6     7   ar
    26     7     8   ar
    27     8     9    1
    28     9    10    1
    29    10    11    1
    30    11    14    1
    31    14    15    1
    32    15    16    1
    33    16    17    1
    34    17    18    1
    35    18    19    1
    36    11    12    1
    37    12    13    1
    38     8     3   ar
    39    19    14    1
    40    28    22   ar
    41    13     7    1
    42    36    31    1
    43    37    33    1
    44     1     2    1
    45    29    30    1
    46    39    41    1
    47    39    42    1
@<TRIPOS>MOLECULE
*****
 42 47 0 0 0
SMALL
GASTEIGER

@<TRIPOS>ATOM
      1 N         141.1803  138.7000  160.6192 N.pl3   1  UNL1       -0.2801
      2 H         141.4607  137.8162  160.2882 H       1  UNL1        0.1552
      3 C         140.6875  139.4043  163.0710 C.ar    1  UNL1        0.1477
      4 C         141.6633  139.1895  161.9522 C.ar    1  UNL1        0.0846
      5 C         143.1223  139.4643  162.1665 C.ar    1  UNL1        0.0174
      6 C         143.6054  139.9539  163.4996 C.ar    1  UNL1       -0.0031
      7 C         142.6295  140.1686  164.6183 C.ar    1  UNL1       -0.0231
      8 C         141.1707  139.8938  164.4040 C.ar    1  UNL1        0.0091
      9 C         140.0385  140.0404  165.3771 C.3     1  UNL1        0.0305
     10 C         140.0858  140.4979  166.8049 C.3     1  UNL1        0.0207
     11 C         141.2768  140.9219  167.6121 C.3     1  UNL1        0.0583
     12 C         142.7148  140.9931  167.1910 C.3     1  UNL1        0.0206
     13 C         143.3168  140.6578  165.8587 C.3     1  UNL1        0.0275
     14 N         140.9923  141.3285  169.0276 N.3     1  UNL1       -0.2697
     15 C         140.2253  142.5871  169.3068 C.3     1  UNL1        0.1046
     16 C         139.9409  142.9937  170.7224 C.3     1  UNL1        0.1595
     17 O         140.4233  142.1417  171.8587 O.3     1  UNL1       -0.3508
     18 C         141.1903  140.8832  171.5796 C.3     1  UNL1        0.1595
     19 C         141.4748  140.4766  170.1641 C.3     1  UNL1        0.1046
     20 C         138.7113  137.7235  162.9314 C.3     1  UNL1        0.2525
     21 O         139.2285  139.1295  162.8567 O.3     1  UNL1       -0.4705
     22 C         140.2701  139.5571  159.7904 C.ar    1  UNL1        0.2219
     23 N         139.8189  139.0850  158.4400 N.ar    1  UNL1       -0.2110
     24 C         138.9088  139.9420  157.6112 C.ar    1  UNL1        0.1160
     25 C         138.4496  141.2714  158.1329 C.ar    1  UNL1        0.1082
     26 CL        137.5393  142.1285  157.3041 Cl      1  UNL1       -0.0777
     27 C         138.9006  141.7436  159.4833 C.ar    1  UNL1        0.1435
     28 N         139.8109  140.8865  160.3121 N.ar    1  UNL1       -0.1979
     29 N         138.4415  143.0729  160.0050 N.pl3   1  UNL1       -0.3181
     30 H         138.1012  143.7552  159.3822 H       1  UNL1        0.1482
     31 C         138.5008  143.3626  161.4755 C.3     1  UNL1        0.0832
     32 C         139.2315  144.5027  162.1207 C.3     1  UNL1        0.0984
     33 C         139.0221  144.4078  163.6030 C.3     1  UNL1        0.0323
     34 C         138.3612  143.6083  164.6865 C.2     1  UNL1       -0.0304
     35 C         137.6306  142.4683  164.0413 C.2     1  UNL1       -0.0294
     36 C         137.8399  142.5631  162.5590 C.3     1  UNL1        0.0404
     37 C         138.7000  143.7619  162.2881 C.3     1  UNL1        0.0109
     38 C         140.0311  145.5533  161.4087 C.2     1  UNL1        0.2208
     39 N         141.4777  145.3104  161.0949 N.am    1  UNL1       -0.3288
     40 O         139.3842  146.8467  161.0105 O.2     1  UNL1       -0.2753
     41 H         141.9023  144.4615  161.3562 H       1  UNL1        0.1449
     42 H         142.0025  145.9999  160.6276 H       1  UNL1        0.1449
@<TRIPOS>BOND
     1    20    21    1
     2    21     3    1
     3     3     4   ar
     4     4     1    1
     5     1    22    1
     6    22    23   ar
     7    23    24   ar
     8    24    25   ar
     9    25    26    1
    10    25    27   ar
    11    27    29    1
    12    31    29    1
    13    31    32    1
    14    32    38    1
    15    38    39   am
    16    38    40    2
    17    32    33    1
    18    33    34    1
    19    34    35    2
    20    36    35    1
    21    36    37    1
    22    27    28   ar
    23     4     5   ar
    24     5     6   ar
    25     6     7   ar
    26     7     8   ar
    27     8     9    1
    28     9    10    1
    29    10    11    1
    30    11    14    1
    31    14    15    1
    32    15    16    1
    33    16    17    1
    34    17    18    1
    35    18    19    1
    36    11    12    1
    37    12    13    1
    38     8     3   ar
    39    19    14    1
    40    28    22   ar
    41    13     7    1
    42    36    31    1
    43    37    33    1
    44     1     2    1
    45    29    30    1
    46    39    41    1
    47    39    42    1
@<TRIPOS>MOLECULE
*****
 42 47 0 0 0
SMALL
GASTEIGER

@<TRIPOS>ATOM
      1 N         141.5908  145.6670  159.6344 N.pl3   1  UNL1       -0.2801
      2 H         142.4344  146.1639  159.5311 H       1  UNL1        0.1552
      3 C         142.0424  144.3909  161.8521 C.ar    1  UNL1        0.1477
      4 C         141.1399  145.2298  160.9966 C.ar    1  UNL1        0.0846
      5 C         139.7865  145.6317  161.5033 C.ar    1  UNL1        0.0174
      6 C         139.3355  145.1946  162.8656 C.ar    1  UNL1       -0.0031
      7 C         140.2380  144.3556  163.7210 C.ar    1  UNL1       -0.0231
      8 C         141.5913  143.9538  163.2142 C.ar    1  UNL1        0.0091
      9 C         142.6391  143.1273  163.8993 C.3     1  UNL1        0.0305
     10 C         142.5920  142.4984  165.2604 C.3     1  UNL1        0.0207
     11 C         141.4857  142.5408  166.2724 C.3     1  UNL1        0.0583
     12 C         140.1532  143.2225  166.1735 C.3     1  UNL1        0.0206
     13 C         139.5979  144.0302  165.0380 C.3     1  UNL1        0.0275
     14 N         141.7464  141.8041  167.5527 N.3     1  UNL1       -0.2697
     15 C         140.8232  140.7042  167.9866 C.3     1  UNL1        0.1046
     16 C         141.0839  139.9675  169.2669 C.3     1  UNL1        0.1595
     17 O         142.2677  140.3307  170.1135 O.3     1  UNL1       -0.3508
     18 C         143.1909  141.4305  169.6797 C.3     1  UNL1        0.1595
     19 C         142.9302  142.1672  168.3994 C.3     1  UNL1        0.1046
     20 C         143.5263  142.8529  160.3748 C.3     1  UNL1        0.2525
     21 O         143.3958  143.9891  161.3454 O.3     1  UNL1       -0.4705
     22 C         140.7564  145.3469  158.4297 C.ar    1  UNL1        0.2219
     23 N         140.5920  143.9228  157.9880 N.ar    1  UNL1       -0.2110
     24 C         139.7577  143.6027  156.7833 C.ar    1  UNL1        0.1160
     25 C         139.0876  144.7067  156.0203 C.ar    1  UNL1        0.1082
     26 CL        138.2532  144.3867  154.8155 Cl      1  UNL1       -0.0777
     27 C         139.2520  146.1308  156.4619 C.ar    1  UNL1        0.1435
     28 N         140.0864  146.4509  157.6666 N.ar    1  UNL1       -0.1979
     29 N         138.5820  147.2348  155.6989 N.pl3   1  UNL1       -0.3181
     30 H         137.6183  147.3992  155.8152 H       1  UNL1        0.1482
     31 C         139.3802  148.0885  154.7587 C.3     1  UNL1        0.0832
     32 C         139.4123  149.5880  154.7408 C.3     1  UNL1        0.0984
     33 C         140.3384  150.0188  153.6423 C.3     1  UNL1        0.0323
     34 C         141.2447  149.5228  152.5548 C.2     1  UNL1       -0.0304
     35 C         141.2126  148.0233  152.5727 C.2     1  UNL1       -0.0294
     36 C         140.2865  147.5925  153.6712 C.3     1  UNL1        0.0404
     37 C         139.7462  148.8259  154.3323 C.3     1  UNL1        0.0109
     38 C         138.6517  150.4972  155.6601 C.2     1  UNL1        0.2208
     39 N         138.1795  151.8343  155.1708 N.am    1  UNL1       -0.3288
     40 O         138.3635  150.0694  157.0686 O.2     1  UNL1       -0.2753
     41 H         138.3687  152.1150  154.2464 H       1  UNL1        0.1449
     42 H         137.6803  152.4310  155.7741 H       1  UNL1        0.1449
@<TRIPOS>BOND
     1    20    21    1
     2    21     3    1
     3     3     4   ar
     4     4     1    1
     5     1    22    1
     6    22    23   ar
     7    23    24   ar
     8    24    25   ar
     9    25    26    1
    10    25    27   ar
    11    27    29    1
    12    31    29    1
    13    31    32    1
    14    32    38    1
    15    38    39   am
    16    38    40    2
    17    32    33    1
    18    33    34    1
    19    34    35    2
    20    36    35    1
    21    36    37    1
    22    27    28   ar
    23     4     5   ar
    24     5     6   ar
    25     6     7   ar
    26     7     8   ar
    27     8     9    1
    28     9    10    1
    29    10    11    1
    30    11    14    1
    31    14    15    1
    32    15    16    1
    33    16    17    1
    34    17    18    1
    35    18    19    1
    36    11    12    1
    37    12    13    1
    38     8     3   ar
    39    19    14    1
    40    28    22   ar
    41    13     7    1
    42    36    31    1
    43    37    33    1
    44     1     2    1
    45    29    30    1
    46    39    41    1
    47    39    42    1
@<TRIPOS>MOLECULE
*****
 42 47 0 0 0
SMALL
GASTEIGER

@<TRIPOS>ATOM
      1 N         141.4429  138.4106  160.6098 N.pl3   1  UNL1       -0.2801
      2 H         141.7078  137.5134  160.3031 H       1  UNL1        0.1552
      3 C         141.5448  139.3304  163.0375 C.ar    1  UNL1        0.1477
      4 C         140.8134  138.5863  161.9598 C.ar    1  UNL1        0.0846
      5 C         139.4523  138.0177  162.2323 C.ar    1  UNL1        0.0174
      6 C         138.8226  138.1933  163.5824 C.ar    1  UNL1       -0.0031
      7 C         139.5541  138.9375  164.6600 C.ar    1  UNL1       -0.0231
      8 C         140.9151  139.5060  164.3875 C.ar    1  UNL1        0.0091
      9 C         141.8097  140.2757  165.3135 C.3     1  UNL1        0.0305
     10 C         141.5641  140.6669  166.7406 C.3     1  UNL1        0.0207
     11 C         140.3634  140.3851  167.5942 C.3     1  UNL1        0.0583
     12 C         139.1116  139.6424  167.2316 C.3     1  UNL1        0.0206
     13 C         138.7514  138.9981  165.9258 C.3     1  UNL1        0.0275
     14 N         140.4221  140.9161  168.9958 N.3     1  UNL1       -0.2697
     15 C         140.0380  142.3389  169.2756 C.3     1  UNL1        0.1046
     16 C         140.0967  142.8699  170.6772 C.3     1  UNL1        0.1595
     17 O         140.5396  141.9782  171.7991 O.3     1  UNL1       -0.3508
     18 C         140.9238  140.5554  171.5194 C.3     1  UNL1        0.1595
     19 C         140.8651  140.0244  170.1178 C.3     1  UNL1        0.1046
     20 C         144.1114  139.0072  162.7975 C.3     1  UNL1        0.2525
     21 O         142.9058  139.8990  162.7650 O.3     1  UNL1       -0.4705
     22 C         141.6689  139.6021  159.7269 C.ar    1  UNL1        0.2219
     23 N         142.3000  139.4268  158.3774 N.ar    1  UNL1       -0.2110
     24 C         142.5259  140.6182  157.4946 C.ar    1  UNL1        0.1160
     25 C         142.1208  141.9850  157.9613 C.ar    1  UNL1        0.1082
     26 CL        142.3468  143.1765  157.0784 Cl      1  UNL1       -0.0777
     27 C         141.4898  142.1604  159.3107 C.ar    1  UNL1        0.1435
     28 N         141.2638  140.9689  160.1936 N.ar    1  UNL1       -0.1979
     29 N         141.0847  143.5272  159.7774 N.pl3   1  UNL1       -0.3181
     30 H         140.4684  144.0701  159.2346 H       1  UNL1        0.1482
     31 C         141.6184  144.0667  161.0712 C.3     1  UNL1        0.0832
     32 C         140.8644  144.9178  162.0495 C.3     1  UNL1        0.0984
     33 C         141.7799  145.2270  163.1968 C.3     1  UNL1        0.0323
     34 C         143.1614  145.0102  163.7395 C.2     1  UNL1       -0.0304
     35 C         143.9154  144.1591  162.7612 C.2     1  UNL1       -0.0294
     36 C         142.9999  143.8499  161.6139 C.3     1  UNL1        0.0404
     37 C         141.6801  144.5100  161.8832 C.3     1  UNL1        0.0109
     38 C         139.4442  145.3788  161.9058 C.2     1  UNL1        0.2208
     39 N         139.1395  146.6527  161.1748 N.am    1  UNL1       -0.3288
     40 O         138.3288  144.5659  162.4931 O.2     1  UNL1       -0.2753
     41 H         139.8716  147.1862  160.7893 H       1  UNL1        0.1449
     42 H         138.2074  146.9552  161.0804 H       1  UNL1        0.1449
@<TRIPOS>BOND
     1    20    21    1
     2    21     3    1
     3     3     4   ar
     4     4     1    1
     5     1    22    1
     6    22    23   ar
     7    23    24   ar
     8    24    25   ar
     9    25    26    1
    10    25    27   ar
    11    27    29    1
    12    31    29    1
    13    31    32    1
    14    32    38    1
    15    38    39   am
    16    38    40    2
    17    32    33    1
    18    33    34    1
    19    34    35    2
    20    36    35    1
    21    36    37    1
    22    27    28   ar
    23     4     5   ar
    24     5     6   ar
    25     6     7   ar
    26     7     8   ar
    27     8     9    1
    28     9    10    1
    29    10    11    1
    30    11    14    1
    31    14    15    1
    32    15    16    1
    33    16    17    1
    34    17    18    1
    35    18    19    1
    36    11    12    1
    37    12    13    1
    38     8     3   ar
    39    19    14    1
    40    28    22   ar
    41    13     7    1
    42    36    31    1
    43    37    33    1
    44     1     2    1
    45    29    30    1
    46    39    41    1
    47    39    42    1
@<TRIPOS>MOLECULE
*****
 42 47 0 0 0
SMALL
GASTEIGER

@<TRIPOS>ATOM
      1 N         142.3550  137.4506  161.1102 N.pl3   1  UNL1       -0.2801
      2 H         142.8700  136.6117  161.1236 H       1  UNL1        0.1552
      3 C         142.2909  138.5474  163.4646 C.ar    1  UNL1        0.1477
      4 C         141.5839  137.8768  162.3242 C.ar    1  UNL1        0.0846
      5 C         140.1058  137.6324  162.3978 C.ar    1  UNL1        0.0174
      6 C         139.3347  138.0586  163.6118 C.ar    1  UNL1       -0.0031
      7 C         140.0417  138.7292  164.7522 C.ar    1  UNL1       -0.0231
      8 C         141.5198  138.9735  164.6785 C.ar    1  UNL1        0.0091
      9 C         142.4125  139.6210  165.6954 C.3     1  UNL1        0.0305
     10 C         142.0475  140.1840  167.0370 C.3     1  UNL1        0.0207
     11 C         140.6997  140.2385  167.6930 C.3     1  UNL1        0.0583
     12 C         139.3840  139.7436  167.1696 C.3     1  UNL1        0.0206
     13 C         139.0912  139.0719  165.8608 C.3     1  UNL1        0.0275
     14 N         140.6627  140.8717  169.0523 N.3     1  UNL1       -0.2697
     15 C         140.0578  142.2329  169.2295 C.3     1  UNL1        0.1046
     16 C         140.0208  142.8661  170.5888 C.3     1  UNL1        0.1595
     17 O         140.5887  142.1381  171.7709 O.3     1  UNL1       -0.3508
     18 C         141.1936  140.7769  171.5939 C.3     1  UNL1        0.1595
     19 C         141.2306  140.1437  170.2346 C.3     1  UNL1        0.1046
     20 C         144.2968  139.9762  162.6371 C.3     1  UNL1        0.2525
     21 O         143.7691  138.7918  163.3910 O.3     1  UNL1       -0.4705
     22 C         142.3412  138.3026  159.8757 C.ar    1  UNL1        0.2219
     23 N         142.9882  137.8083  158.6159 N.ar    1  UNL1       -0.2110
     24 C         142.9745  138.6602  157.3815 C.ar    1  UNL1        0.1160
     25 C         142.3138  140.0067  157.4068 C.ar    1  UNL1        0.1082
     26 CL        142.3000  140.8587  156.1723 Cl      1  UNL1       -0.0777
     27 C         141.6668  140.5011  158.6666 C.ar    1  UNL1        0.1435
     28 N         141.6805  139.6491  159.9010 N.ar    1  UNL1       -0.1979
     29 N         141.0061  141.8475  158.6920 N.pl3   1  UNL1       -0.3181
     30 H         141.0723  142.4431  157.9109 H       1  UNL1        0.1482
     31 C         140.2446  142.2865  159.9074 C.3     1  UNL1        0.0832
     32 C         140.5934  143.4433  160.7963 C.3     1  UNL1        0.0984
     33 C         139.5649  143.5175  161.8856 C.3     1  UNL1        0.0323
     34 C         138.3207  142.8767  162.4255 C.2     1  UNL1       -0.0304
     35 C         137.9719  141.7200  161.5366 C.2     1  UNL1       -0.0294
     36 C         139.0004  141.6457  160.4473 C.3     1  UNL1        0.0404
     37 C         139.9850  142.7567  160.6630 C.3     1  UNL1        0.0109
     38 C         141.7651  144.3642  160.6258 C.2     1  UNL1        0.2208
     39 N         141.6564  145.5571  159.7229 N.am    1  UNL1       -0.3288
     40 O         143.0456  144.0923  161.3583 O.2     1  UNL1       -0.2753
     41 H         140.8160  145.7356  159.2422 H       1  UNL1        0.1449
     42 H         142.4254  146.1615  159.6110 H       1  UNL1        0.1449
@<TRIPOS>BOND
     1    20    21    1
     2    21     3    1
     3     3     4   ar
     4     4     1    1
     5     1    22    1
     6    22    23   ar
     7    23    24   ar
     8    24    25   ar
     9    25    26    1
    10    25    27   ar
    11    27    29    1
    12    31    29    1
    13    31    32    1
    14    32    38    1
    15    38    39   am
    16    38    40    2
    17    32    33    1
    18    33    34    1
    19    34    35    2
    20    36    35    1
    21    36    37    1
    22    27    28   ar
    23     4     5   ar
    24     5     6   ar
    25     6     7   ar
    26     7     8   ar
    27     8     9    1
    28     9    10    1
    29    10    11    1
    30    11    14    1
    31    14    15    1
    32    15    16    1
    33    16    17    1
    34    17    18    1
    35    18    19    1
    36    11    12    1
    37    12    13    1
    38     8     3   ar
    39    19    14    1
    40    28    22   ar
    41    13     7    1
    42    36    31    1
    43    37    33    1
    44     1     2    1
    45    29    30    1
    46    39    41    1
    47    39    42    1
@<TRIPOS>MOLECULE
*****
 42 47 0 0 0
SMALL
GASTEIGER

@<TRIPOS>ATOM
      1 N         141.8223  143.0113  160.1666 N.pl3   1  UNL1       -0.2801
      2 H         141.8890  143.8834  159.7146 H       1  UNL1        0.1552
      3 C         141.2268  142.8108  162.6876 C.ar    1  UNL1        0.1477
      4 C         142.2542  142.8727  161.5964 C.ar    1  UNL1        0.0846
      5 C         143.7135  142.7959  161.9350 C.ar    1  UNL1        0.0174
      6 C         144.1454  142.6573  163.3648 C.ar    1  UNL1       -0.0031
      7 C         143.1179  142.5954  164.4560 C.ar    1  UNL1       -0.0231
      8 C         141.6588  142.6722  164.1174 C.ar    1  UNL1        0.0091
      9 C         140.4801  142.6295  165.0442 C.3     1  UNL1        0.0305
     10 C         140.4696  142.4996  166.5386 C.3     1  UNL1        0.0207
     11 C         141.6352  142.3802  167.4750 C.3     1  UNL1        0.0583
     12 C         143.0991  142.3613  167.1487 C.3     1  UNL1        0.0206
     13 C         143.7590  142.4570  165.8050 C.3     1  UNL1        0.0275
     14 N         141.2914  142.2644  168.9305 N.3     1  UNL1       -0.2697
     15 C         142.0535  141.3163  169.8082 C.3     1  UNL1        0.1046
     16 C         141.7098  141.2005  171.2637 C.3     1  UNL1        0.1595
     17 O         140.6038  142.0329  171.8415 O.3     1  UNL1       -0.3508
     18 C         139.8416  142.9811  170.9640 C.3     1  UNL1        0.1595
     19 C         140.1854  143.0969  169.5085 C.3     1  UNL1        0.1046
     20 C         139.1120  144.2226  162.1543 C.3     1  UNL1        0.2525
     21 O         139.7675  142.8876  162.3491 O.3     1  UNL1       -0.4705
     22 C         141.2890  141.8212  159.4256 C.ar    1  UNL1        0.2219
     23 N         141.1717  141.8593  157.9306 N.ar    1  UNL1       -0.2110
     24 C         140.6384  140.6693  157.1895 C.ar    1  UNL1        0.1160
     25 C         140.2222  139.4410  157.9434 C.ar    1  UNL1        0.1082
     26 CL        139.6889  138.2509  157.2023 Cl      1  UNL1       -0.0777
     27 C         140.3395  139.4029  159.4384 C.ar    1  UNL1        0.1435
     28 N         140.8728  140.5930  160.1794 N.ar    1  UNL1       -0.1979
     29 N         139.9233  138.1747  160.1923 N.pl3   1  UNL1       -0.3181
     30 H         139.6978  137.3501  159.7039 H       1  UNL1        0.1482
     31 C         139.8508  138.2027  161.6902 C.3     1  UNL1        0.0832
     32 C         138.8450  138.9548  162.5103 C.3     1  UNL1        0.0984
     33 C         139.1439  138.7005  163.9580 C.3     1  UNL1        0.0323
     34 C         140.0645  137.9814  164.8989 C.2     1  UNL1       -0.0304
     35 C         141.0703  137.2293  164.0788 C.2     1  UNL1       -0.0294
     36 C         140.7714  137.4836  162.6311 C.3     1  UNL1        0.0404
     37 C         139.5807  138.3929  162.5565 C.3     1  UNL1        0.0109
     38 C         137.7350  139.8110  161.9764 C.2     1  UNL1        0.2208
     39 N         137.2622  141.0001  162.7590 N.am    1  UNL1       -0.3288
     40 O         137.0978  139.4780  160.6599 O.2     1  UNL1       -0.2753
     41 H         137.6804  141.2187  163.6231 H       1  UNL1        0.1449
     42 H         136.5337  141.5621  162.4086 H       1  UNL1        0.1449
@<TRIPOS>BOND
     1    20    21    1
     2    21     3    1
     3     3     4   ar
     4     4     1    1
     5     1    22    1
     6    22    23   ar
     7    23    24   ar
     8    24    25   ar
     9    25    26    1
    10    25    27   ar
    11    27    29    1
    12    31    29    1
    13    31    32    1
    14    32    38    1
    15    38    39   am
    16    38    40    2
    17    32    33    1
    18    33    34    1
    19    34    35    2
    20    36    35    1
    21    36    37    1
    22    27    28   ar
    23     4     5   ar
    24     5     6   ar
    25     6     7   ar
    26     7     8   ar
    27     8     9    1
    28     9    10    1
    29    10    11    1
    30    11    14    1
    31    14    15    1
    32    15    16    1
    33    16    17    1
    34    17    18    1
    35    18    19    1
    36    11    12    1
    37    12    13    1
    38     8     3   ar
    39    19    14    1
    40    28    22   ar
    41    13     7    1
    42    36    31    1
    43    37    33    1
    44     1     2    1
    45    29    30    1
    46    39    41    1
    47    39    42    1
@<TRIPOS>MOLECULE
*****
 42 47 0 0 0
SMALL
GASTEIGER

@<TRIPOS>ATOM
      1 N         144.2491  138.9806  161.0174 N.pl3   1  UNL1       -0.2801
      2 H         144.9897  138.3368  160.9384 H       1  UNL1        0.1552
      3 C         143.2485  139.3816  163.3813 C.ar    1  UNL1        0.1477
      4 C         144.1217  139.8300  162.2470 C.ar    1  UNL1        0.0846
      5 C         144.8674  141.1280  162.3425 C.ar    1  UNL1        0.0174
      6 C         144.7400  141.9776  163.5721 C.ar    1  UNL1       -0.0031
      7 C         143.8668  141.5291  164.7064 C.ar    1  UNL1       -0.0231
      8 C         143.1212  140.2312  164.6109 C.ar    1  UNL1        0.0091
      9 C         142.2045  139.6029  165.6185 C.3     1  UNL1        0.0305
     10 C         141.8073  140.1175  166.9704 C.3     1  UNL1        0.0207
     11 C         142.2285  141.3874  167.6484 C.3     1  UNL1        0.0583
     12 C         143.1511  142.4564  167.1423 C.3     1  UNL1        0.0206
     13 C         143.8802  142.5195  165.8329 C.3     1  UNL1        0.0275
     14 N         141.6509  141.6189  169.0133 N.3     1  UNL1       -0.2697
     15 C         140.5323  142.6012  169.1975 C.3     1  UNL1        0.1046
     16 C         139.9546  142.8328  170.5623 C.3     1  UNL1        0.1595
     17 O         140.4956  142.0821  171.7429 O.3     1  UNL1       -0.3508
     18 C         141.6141  141.0998  171.5587 C.3     1  UNL1        0.1595
     19 C         142.1918  140.8682  170.1939 C.3     1  UNL1        0.1046
     20 C         141.1693  138.0334  162.6010 C.3     1  UNL1        0.2525
     21 O         142.5028  138.0836  163.2859 O.3     1  UNL1       -0.4705
     22 C         143.2481  139.1121  159.9080 C.ar    1  UNL1        0.2219
     23 N         143.1396  138.0398  158.8646 N.ar    1  UNL1       -0.2110
     24 C         142.1387  138.1713  157.7553 C.ar    1  UNL1        0.1160
     25 C         141.2460  139.3750  157.6893 C.ar    1  UNL1        0.1082
     26 CL        140.2450  139.5065  156.5799 Cl      1  UNL1       -0.0777
     27 C         141.3544  140.4473  158.7326 C.ar    1  UNL1        0.1435
     28 N         142.3554  140.3158  159.8420 N.ar    1  UNL1       -0.1979
     29 N         140.4618  141.6510  158.6667 N.pl3   1  UNL1       -0.3181
     30 H         140.3910  142.1660  157.8307 H       1  UNL1        0.1482
     31 C         139.6772  142.0699  159.8744 C.3     1  UNL1        0.0832
     32 C         139.6786  143.4346  160.4970 C.3     1  UNL1        0.0984
     33 C         138.7556  143.4059  161.6790 C.3     1  UNL1        0.0323
     34 C         137.8317  142.5337  162.4763 C.2     1  UNL1       -0.0304
     35 C         137.8303  141.1690  161.8538 C.2     1  UNL1       -0.0294
     36 C         138.7533  141.1977  160.6717 C.3     1  UNL1        0.0404
     37 C         139.3252  142.5803  160.5637 C.3     1  UNL1        0.0109
     38 C         140.4650  144.6201  160.0210 C.2     1  UNL1        0.2208
     39 N         141.7779  144.9562  160.6638 N.am    1  UNL1       -0.3288
     40 O         139.9384  145.4693  158.9023 O.2     1  UNL1       -0.2753
     41 H         142.1236  144.3988  161.3980 H       1  UNL1        0.1449
     42 H         142.2941  145.7342  160.3514 H       1  UNL1        0.1449
@<TRIPOS>BOND
     1    20    21    1
     2    21     3    1
     3     3     4   ar
     4     4     1    1
     5     1    22    1
     6    22    23   ar
     7    23    24   ar
     8    24    25   ar
     9    25    26    1
    10    25    27   ar
    11    27    29    1
    12    31    29    1
    13    31    32    1
    14    32    38    1
    15    38    39   am
    16    38    40    2
    17    32    33    1
    18    33    34    1
    19    34    35    2
    20    36    35    1
    21    36    37    1
    22    27    28   ar
    23     4     5   ar
    24     5     6   ar
    25     6     7   ar
    26     7     8   ar
    27     8     9    1
    28     9    10    1
    29    10    11    1
    30    11    14    1
    31    14    15    1
    32    15    16    1
    33    16    17    1
    34    17    18    1
    35    18    19    1
    36    11    12    1
    37    12    13    1
    38     8     3   ar
    39    19    14    1
    40    28    22   ar
    41    13     7    1
    42    36    31    1
    43    37    33    1
    44     1     2    1
    45    29    30    1
    46    39    41    1
    47    39    42    1
@<TRIPOS>MOLECULE
*****
 42 47 0 0 0
SMALL
GASTEIGER

@<TRIPOS>ATOM
      1 N         138.7558  137.9158  161.2814 N.pl3   1  UNL1       -0.2801
      2 H         137.9888  137.3036  161.3608 H       1  UNL1        0.1552
      3 C         139.1713  139.0644  163.5745 C.ar    1  UNL1        0.1477
      4 C         139.6398  138.1682  162.4666 C.ar    1  UNL1        0.0846
      5 C         140.9924  137.5242  162.5440 C.ar    1  UNL1        0.0174
      6 C         141.8765  137.7766  163.7293 C.ar    1  UNL1       -0.0031
      7 C         141.4079  138.6729  164.8371 C.ar    1  UNL1       -0.0231
      8 C         140.0555  139.3167  164.7597 C.ar    1  UNL1        0.0091
      9 C         139.3997  140.2367  165.7465 C.3     1  UNL1        0.0305
     10 C         139.9346  140.7400  167.0544 C.3     1  UNL1        0.0207
     11 C         141.2573  140.4475  167.6985 C.3     1  UNL1        0.0583
     12 C         142.3718  139.5797  167.1939 C.3     1  UNL1        0.0206
     13 C         142.4389  138.7899  165.9204 C.3     1  UNL1        0.0275
     14 N         141.4972  141.1107  169.0224 N.3     1  UNL1       -0.2697
     15 C         142.4825  142.2367  169.1296 C.3     1  UNL1        0.1046
     16 C         142.7225  142.8999  170.4535 C.3     1  UNL1        0.1595
     17 O         141.9772  142.4370  171.6702 O.3     1  UNL1       -0.3508
     18 C         140.9919  141.3110  171.5630 C.3     1  UNL1        0.1595
     19 C         140.7519  140.6479  170.2391 C.3     1  UNL1        0.1046
     20 C         137.6407  140.9902  162.7389 C.3     1  UNL1        0.2525
     21 O         137.8188  139.7083  163.4971 O.3     1  UNL1       -0.4705
     22 C         139.0404  138.5961  159.9752 C.ar    1  UNL1        0.2219
     23 N         138.1393  139.6920  159.4883 N.ar    1  UNL1       -0.2110
     24 C         138.4238  140.3723  158.1822 C.ar    1  UNL1        0.1160
     25 C         139.6095  139.9567  157.3627 C.ar    1  UNL1        0.1082
     26 CL        139.8941  140.6370  156.0565 Cl      1  UNL1       -0.0777
     27 C         140.5106  138.8607  157.8495 C.ar    1  UNL1        0.1435
     28 N         140.2261  138.1804  159.1558 N.ar    1  UNL1       -0.1979
     29 N         141.6963  138.4450  157.0302 N.pl3   1  UNL1       -0.3181
     30 H         142.3824  139.1075  156.7858 H       1  UNL1        0.1482
     31 C         141.8367  137.0202  156.5831 C.3     1  UNL1        0.0832
     32 C         140.9210  136.2977  155.6401 C.3     1  UNL1        0.0984
     33 C         141.4358  134.8985  155.4748 C.3     1  UNL1        0.0323
     34 C         142.5167  133.9459  155.8923 C.2     1  UNL1       -0.0304
     35 C         143.4324  134.6684  156.8354 C.2     1  UNL1       -0.0294
     36 C         142.9176  136.0676  157.0007 C.3     1  UNL1        0.0404
     37 C         141.6835  136.2097  156.1597 C.3     1  UNL1        0.0109
     38 C         139.7039  136.8732  154.9785 C.2     1  UNL1        0.2208
     39 N         139.7827  137.3698  153.5652 N.am    1  UNL1       -0.3288
     40 O         138.4083  136.9522  155.7301 O.2     1  UNL1       -0.2753
     41 H         140.6331  137.3179  153.0719 H       1  UNL1        0.1449
     42 H         138.9839  137.7475  153.1310 H       1  UNL1        0.1449
@<TRIPOS>BOND
     1    20    21    1
     2    21     3    1
     3     3     4   ar
     4     4     1    1
     5     1    22    1
     6    22    23   ar
     7    23    24   ar
     8    24    25   ar
     9    25    26    1
    10    25    27   ar
    11    27    29    1
    12    31    29    1
    13    31    32    1
    14    32    38    1
    15    38    39   am
    16    38    40    2
    17    32    33    1
    18    33    34    1
    19    34    35    2
    20    36    35    1
    21    36    37    1
    22    27    28   ar
    23     4     5   ar
    24     5     6   ar
    25     6     7   ar
    26     7     8   ar
    27     8     9    1
    28     9    10    1
    29    10    11    1
    30    11    14    1
    31    14    15    1
    32    15    16    1
    33    16    17    1
    34    17    18    1
    35    18    19    1
    36    11    12    1
    37    12    13    1
    38     8     3   ar
    39    19    14    1
    40    28    22   ar
    41    13     7    1
    42    36    31    1
    43    37    33    1
    44     1     2    1
    45    29    30    1
    46    39    41    1
    47    39    42    1
@<TRIPOS>MOLECULE
*****
 42 47 0 0 0
SMALL
GASTEIGER

@<TRIPOS>ATOM
      1 N         138.3998  139.3756  166.6524 N.pl3   1  UNL1       -0.2801
      2 H         137.5029  139.1996  167.0182 H       1  UNL1        0.1552
      3 C         138.2822  140.0686  164.1512 C.ar    1  UNL1        0.1477
      4 C         138.6912  139.0874  165.2095 C.ar    1  UNL1        0.0846
      5 C         139.3917  137.8180  164.8249 C.ar    1  UNL1        0.0174
      6 C         139.6831  137.5298  163.3819 C.ar    1  UNL1       -0.0031
      7 C         139.2741  138.5111  162.3237 C.ar    1  UNL1       -0.0231
      8 C         138.5737  139.7804  162.7084 C.ar    1  UNL1        0.0091
      9 C         138.0838  140.8847  161.8192 C.3     1  UNL1        0.0305
     10 C         138.1735  140.9923  160.3257 C.3     1  UNL1        0.0207
     11 C         138.7751  140.0223  159.3526 C.3     1  UNL1        0.0583
     12 C         139.4357  138.7049  159.6326 C.3     1  UNL1        0.0206
     13 C         139.6577  138.0324  160.9548 C.3     1  UNL1        0.0275
     14 N         138.7072  140.4224  157.9086 N.3     1  UNL1       -0.2697
     15 C         139.9185  140.2850  157.0344 C.3     1  UNL1        0.1046
     16 C         139.8506  140.6851  155.5903 C.3     1  UNL1        0.1595
     17 O         138.5715  141.2226  155.0204 O.3     1  UNL1       -0.3508
     18 C         137.3602  141.3601  155.8945 C.3     1  UNL1        0.1595
     19 C         137.4281  140.9600  157.3386 C.3     1  UNL1        0.1046
     20 C         138.3802  142.5559  164.8953 C.3     1  UNL1        0.2525
     21 O         137.5818  141.3381  164.5359 O.3     1  UNL1       -0.4705
     22 C         139.4751  139.9318  167.5381 C.ar    1  UNL1        0.2219
     23 N         139.3925  139.7475  169.0245 N.ar    1  UNL1       -0.2110
     24 C         140.4677  140.3037  169.9102 C.ar    1  UNL1        0.1160
     25 C         141.6257  141.0442  169.3095 C.ar    1  UNL1        0.1082
     26 CL        142.7010  141.6004  170.1952 Cl      1  UNL1       -0.0777
     27 C         141.7084  141.2285  167.8231 C.ar    1  UNL1        0.1435
     28 N         140.6331  140.6723  166.9374 N.ar    1  UNL1       -0.1979
     29 N         142.8663  141.9690  167.2224 N.pl3   1  UNL1       -0.3181
     30 H         143.2325  142.7620  167.6766 H       1  UNL1        0.1482
     31 C         143.4662  141.5014  165.9296 C.3     1  UNL1        0.0832
     32 C         144.1971  142.3558  164.9368 C.3     1  UNL1        0.0984
     33 C         144.6232  141.4797  163.7962 C.3     1  UNL1        0.0323
     34 C         144.5977  140.0755  163.2693 C.2     1  UNL1       -0.0304
     35 C         143.8669  139.2211  164.2622 C.2     1  UNL1       -0.0294
     36 C         143.4407  140.0972  165.4027 C.3     1  UNL1        0.0404
     37 C         143.9082  141.4932  165.1147 C.3     1  UNL1        0.0109
     38 C         144.4563  143.8280  165.0623 C.2     1  UNL1        0.2208
     39 N         143.8183  144.7865  164.1010 N.am    1  UNL1       -0.3288
     40 O         145.3534  144.3415  166.1492 O.2     1  UNL1       -0.2753
     41 H         143.2294  144.4494  163.3876 H       1  UNL1        0.1449
     42 H         143.9884  145.7527  164.1834 H       1  UNL1        0.1449
@<TRIPOS>BOND
     1    20    21    1
     2    21     3    1
     3     3     4   ar
     4     4     1    1
     5     1    22    1
     6    22    23   ar
     7    23    24   ar
     8    24    25   ar
     9    25    26    1
    10    25    27   ar
    11    27    29    1
    12    31    29    1
    13    31    32    1
    14    32    38    1
    15    38    39   am
    16    38    40    2
    17    32    33    1
    18    33    34    1
    19    34    35    2
    20    36    35    1
    21    36    37    1
    22    27    28   ar
    23     4     5   ar
    24     5     6   ar
    25     6     7   ar
    26     7     8   ar
    27     8     9    1
    28     9    10    1
    29    10    11    1
    30    11    14    1
    31    14    15    1
    32    15    16    1
    33    16    17    1
    34    17    18    1
    35    18    19    1
    36    11    12    1
    37    12    13    1
    38     8     3   ar
    39    19    14    1
    40    28    22   ar
    41    13     7    1
    42    36    31    1
    43    37    33    1
    44     1     2    1
    45    29    30    1
    46    39    41    1
    47    39    42    1
