@<TRIPOS>MOLECULE
*****
 35 37 0 0 0
SMALL
GASTEIGER

@<TRIPOS>ATOM
      1 C         139.1930  145.3403  162.4167 C.3     1  UNL1        0.1697
      2 O         139.0408  146.5467  161.5384 O.3     1  UNL1       -0.3793
      3 H         138.1124  146.6381  161.2726 H       1  UNL1        0.2106
      4 C         137.9970  144.4975  162.7473 C.3     1  UNL1        0.1020
      5 N         137.6778  143.2898  161.9168 N.3     1  UNL1       -0.2972
      6 H         136.7402  143.4305  161.5406 H       1  UNL1        0.1233
      7 C         137.4338  142.5367  163.8849 C.3     1  UNL1        0.0161
      8 C         137.6941  141.9255  162.5400 C.3     1  UNL1        0.0461
      9 C         137.9543  141.3143  161.1951 C.3     1  UNL1        0.0161
     10 C         137.7103  140.5612  163.1632 C.3     1  UNL1        0.0408
     11 C         138.8931  140.1211  163.9741 C.ar    1  UNL1       -0.0209
     12 C         138.7185  139.7579  165.4190 C.ar    1  UNL1       -0.0042
     13 C         139.9012  139.3178  166.2299 C.ar    1  UNL1       -0.0003
     14 C         141.2585  139.2410  165.5960 C.ar    1  UNL1       -0.0000
     15 C         142.4412  138.8009  166.4069 C.ar    1  UNL1       -0.0000
     16 C         143.7984  138.7241  165.7729 C.ar    1  UNL1       -0.0000
     17 C         143.9730  139.0873  164.3281 C.ar    1  UNL1       -0.0000
     18 C         142.7904  139.5274  163.5172 C.ar    1  UNL1       -0.0000
     19 C         141.4331  139.6042  164.1511 C.ar    1  UNL1       -0.0003
     20 C         140.2504  140.0443  163.3402 C.ar    1  UNL1       -0.0042
     21 C         140.5412  144.9766  162.9644 C.3     1  UNL1        0.2358
     22 O         140.8733  143.5416  163.2482 O.3     1  UNL1       -0.4721
     23 C         141.4312  143.1510  164.5847 C.ar    1  UNL1        0.1482
     24 C         140.5148  142.9860  165.7607 C.ar    1  UNL1        0.0373
     25 C         141.0727  142.5954  167.0972 C.ar    1  UNL1       -0.0011
     26 C         142.5469  142.3699  167.2576 C.ar    1  UNL1       -0.0209
     27 C         143.4633  142.5349  166.0817 C.ar    1  UNL1        0.0091
     28 C         142.9054  142.9254  164.7452 C.ar    1  UNL1        0.1020
     29 C         143.8218  143.0904  163.5691 C.1     1  UNL1        0.1035
     30 N         144.7381  143.2554  162.3931 N.1     1  UNL1       -0.1907
     31 C         143.1048  141.9793  168.5942 C.3     1  UNL1        0.0323
     32 C         142.1850  141.5138  169.6838 C.3     1  UNL1        0.0464
     33 C         141.9218  142.3936  170.8699 C.2     1  UNL1        0.0507
     34 O         140.8320  142.0408  171.8383 O.co2   1  UNL1       -0.5492
     35 O         142.7484  143.6262  171.0876 O.co2   1  UNL1       -0.5492
@<TRIPOS>UNITY_ATOM_ATTR
34 1
charge -1
@<TRIPOS>BOND
     1     7     8    1
     2     8     9    1
     3     8    10    1
     4    10    11    1
     5    11    12   ar
     6    12    13   ar
     7    13    14   ar
     8    14    15   ar
     9    15    16   ar
    10    16    17   ar
    11    17    18   ar
    12    18    19   ar
    13    19    20   ar
    14     8     5    1
    15     5     4    1
    16     4     1    1
    17     1     2    1
    18     1    21    1
    19    21    22    1
    20    22    23    1
    21    23    24   ar
    22    24    25   ar
    23    25    26   ar
    24    26    31    1
    25    31    32    1
    26    32    33    1
    27    33    34   ar
    28    33    35   ar
    29    26    27   ar
    30    27    28   ar
    31    28    29    1
    32    29    30    3
    33    20    11   ar
    34    28    23   ar
    35    19    14   ar
    36     5     6    1
    37     2     3    1
@<TRIPOS>MOLECULE
*****
 35 37 0 0 0
SMALL
GASTEIGER

@<TRIPOS>ATOM
      1 C         142.2449  144.3490  162.0384 C.3     1  UNL1        0.1697
      2 O         142.2035  145.0893  160.7344 O.3     1  UNL1       -0.3793
      3 H         142.9997  145.6366  160.6479 H       1  UNL1        0.2106
      4 C         143.4092  144.5297  162.9668 C.3     1  UNL1        0.1020
      5 N         144.6994  143.8125  162.7000 N.3     1  UNL1       -0.2972
      6 H         144.8244  143.7980  161.6878 H       1  UNL1        0.1233
      7 C         144.7115  142.8631  164.5970 C.3     1  UNL1        0.0161
      8 C         144.8876  142.4039  163.1799 C.3     1  UNL1        0.0461
      9 C         145.0637  141.9447  161.7628 C.3     1  UNL1        0.0161
     10 C         145.0758  140.9952  163.6598 C.3     1  UNL1        0.0408
     11 C         143.8812  140.1427  163.9701 C.ar    1  UNL1       -0.0209
     12 C         143.8615  139.3031  165.2129 C.ar    1  UNL1       -0.0042
     13 C         142.6670  138.4506  165.5232 C.ar    1  UNL1       -0.0003
     14 C         141.4921  138.4377  164.5907 C.ar    1  UNL1       -0.0000
     15 C         140.2976  137.5852  164.9010 C.ar    1  UNL1       -0.0000
     16 C         139.1228  137.5723  163.9685 C.ar    1  UNL1       -0.0000
     17 C         139.1425  138.4120  162.7257 C.ar    1  UNL1       -0.0000
     18 C         140.3370  139.2645  162.4154 C.ar    1  UNL1       -0.0000
     19 C         141.5118  139.2773  163.3479 C.ar    1  UNL1       -0.0003
     20 C         142.7064  140.1299  163.0376 C.ar    1  UNL1       -0.0042
     21 C         141.1220  143.4281  162.4140 C.3     1  UNL1        0.2358
     22 O         140.2895  143.7168  163.6279 O.3     1  UNL1       -0.4721
     23 C         140.2660  142.7443  164.7698 C.ar    1  UNL1        0.1482
     24 C         141.3640  142.7609  165.7917 C.ar    1  UNL1        0.0373
     25 C         141.3405  141.7885  166.9335 C.ar    1  UNL1       -0.0011
     26 C         140.2191  140.7996  167.0535 C.ar    1  UNL1       -0.0209
     27 C         139.1212  140.7830  166.0317 C.ar    1  UNL1        0.0091
     28 C         139.1446  141.7554  164.8899 C.ar    1  UNL1        0.1020
     29 C         138.0466  141.7388  163.8679 C.1     1  UNL1        0.1035
     30 N         136.9487  141.7223  162.8461 N.1     1  UNL1       -0.1907
     31 C         140.1957  139.8271  168.1955 C.3     1  UNL1        0.0323
     32 C         140.9718  140.1193  169.4453 C.3     1  UNL1        0.0464
     33 C         140.2577  140.2527  170.7577 C.2     1  UNL1        0.0507
     34 O         139.0678  139.3892  171.0553 O.co2   1  UNL1       -0.5492
     35 O         140.7335  141.2496  171.7725 O.co2   1  UNL1       -0.5492
@<TRIPOS>UNITY_ATOM_ATTR
34 1
charge -1
@<TRIPOS>BOND
     1     7     8    1
     2     8     9    1
     3     8    10    1
     4    10    11    1
     5    11    12   ar
     6    12    13   ar
     7    13    14   ar
     8    14    15   ar
     9    15    16   ar
    10    16    17   ar
    11    17    18   ar
    12    18    19   ar
    13    19    20   ar
    14     8     5    1
    15     5     4    1
    16     4     1    1
    17     1     2    1
    18     1    21    1
    19    21    22    1
    20    22    23    1
    21    23    24   ar
    22    24    25   ar
    23    25    26   ar
    24    26    31    1
    25    31    32    1
    26    32    33    1
    27    33    34   ar
    28    33    35   ar
    29    26    27   ar
    30    27    28   ar
    31    28    29    1
    32    29    30    3
    33    20    11   ar
    34    28    23   ar
    35    19    14   ar
    36     5     6    1
    37     2     3    1
@<TRIPOS>MOLECULE
*****
 35 37 0 0 0
SMALL
GASTEIGER

@<TRIPOS>ATOM
      1 C         137.8925  139.5672  161.2027 C.3     1  UNL1        0.1697
      2 O         136.5504  139.5490  160.5329 O.3     1  UNL1       -0.3793
      3 H         136.3597  138.6526  160.2151 H       1  UNL1        0.2106
      4 C         138.7035  138.3085  161.2912 C.3     1  UNL1        0.1020
      5 N         138.7450  137.5317  162.5738 N.3     1  UNL1       -0.2972
      6 H         137.9984  137.8980  163.1642 H       1  UNL1        0.1233
      7 C         139.1599  137.4557  164.6528 C.3     1  UNL1        0.0161
      8 C         139.9924  137.5257  163.4069 C.3     1  UNL1        0.0461
      9 C         140.8248  137.5956  162.1611 C.3     1  UNL1        0.0161
     10 C         141.2397  137.5197  164.2400 C.3     1  UNL1        0.0408
     11 C         141.8791  138.8156  164.6424 C.ar    1  UNL1       -0.0209
     12 C         142.5184  138.9490  165.9928 C.ar    1  UNL1       -0.0042
     13 C         143.1577  140.2448  166.3953 C.ar    1  UNL1       -0.0003
     14 C         143.1578  141.4074  165.4473 C.ar    1  UNL1       -0.0000
     15 C         143.7972  142.7032  165.8497 C.ar    1  UNL1       -0.0000
     16 C         143.7973  143.8656  164.9017 C.ar    1  UNL1       -0.0000
     17 C         143.1581  143.7322  163.5513 C.ar    1  UNL1       -0.0000
     18 C         142.5187  142.4364  163.1489 C.ar    1  UNL1       -0.0000
     19 C         142.5186  141.2740  164.0969 C.ar    1  UNL1       -0.0003
     20 C         141.8792  139.9780  163.6945 C.ar    1  UNL1       -0.0042
     21 C         138.4235  140.8440  161.7838 C.3     1  UNL1        0.2358
     22 O         137.7311  141.4813  162.9520 O.3     1  UNL1       -0.4721
     23 C         138.4997  141.7883  164.2030 C.ar    1  UNL1        0.1482
     24 C         138.6728  140.7331  165.2550 C.ar    1  UNL1        0.0373
     25 C         139.4413  141.0402  166.5059 C.ar    1  UNL1       -0.0011
     26 C         140.0368  142.4025  166.7050 C.ar    1  UNL1       -0.0209
     27 C         139.8638  143.4577  165.6531 C.ar    1  UNL1        0.0091
     28 C         139.0952  143.1506  164.4021 C.ar    1  UNL1        0.1020
     29 C         138.9221  144.2058  163.3501 C.1     1  UNL1        0.1035
     30 N         138.7491  145.2610  162.2981 N.1     1  UNL1       -0.1907
     31 C         140.8054  142.7096  167.9560 C.3     1  UNL1        0.0323
     32 C         140.3969  142.0883  169.2587 C.3     1  UNL1        0.0464
     33 C         140.2695  142.9386  170.4879 C.2     1  UNL1        0.0507
     34 O         140.4017  142.3172  171.8467 O.co2   1  UNL1       -0.5492
     35 O         140.0100  144.4102  170.3583 O.co2   1  UNL1       -0.5492
@<TRIPOS>UNITY_ATOM_ATTR
34 1
charge -1
@<TRIPOS>BOND
     1     7     8    1
     2     8     9    1
     3     8    10    1
     4    10    11    1
     5    11    12   ar
     6    12    13   ar
     7    13    14   ar
     8    14    15   ar
     9    15    16   ar
    10    16    17   ar
    11    17    18   ar
    12    18    19   ar
    13    19    20   ar
    14     8     5    1
    15     5     4    1
    16     4     1    1
    17     1     2    1
    18     1    21    1
    19    21    22    1
    20    22    23    1
    21    23    24   ar
    22    24    25   ar
    23    25    26   ar
    24    26    31    1
    25    31    32    1
    26    32    33    1
    27    33    34   ar
    28    33    35   ar
    29    26    27   ar
    30    27    28   ar
    31    28    29    1
    32    29    30    3
    33    20    11   ar
    34    28    23   ar
    35    19    14   ar
    36     5     6    1
    37     2     3    1
@<TRIPOS>MOLECULE
*****
 35 37 0 0 0
SMALL
GASTEIGER

@<TRIPOS>ATOM
      1 C         143.4586  143.9379  161.8799 C.3     1  UNL1        0.1697
      2 O         143.0351  143.7826  160.4492 O.3     1  UNL1       -0.3793
      3 H         143.7327  143.3262  159.9533 H       1  UNL1        0.2106
      4 C         144.7908  143.4148  162.3287 C.3     1  UNL1        0.1020
      5 N         145.2935  142.0999  161.8104 N.3     1  UNL1       -0.2972
      6 H         144.9579  142.0137  160.8511 H       1  UNL1        0.1233
      7 C         145.6009  141.3204  163.7593 C.3     1  UNL1        0.0161
      8 C         144.9264  140.8268  162.5137 C.3     1  UNL1        0.0461
      9 C         144.2520  140.3333  161.2681 C.3     1  UNL1        0.0161
     10 C         144.5594  139.5538  163.2169 C.3     1  UNL1        0.0408
     11 C         143.2904  139.4758  164.0131 C.ar    1  UNL1       -0.0209
     12 C         143.3158  138.9403  165.4140 C.ar    1  UNL1       -0.0042
     13 C         142.0470  138.8623  166.2102 C.ar    1  UNL1       -0.0003
     14 C         140.7527  139.3198  165.6055 C.ar    1  UNL1       -0.0000
     15 C         139.4839  139.2418  166.4017 C.ar    1  UNL1       -0.0000
     16 C         138.1897  139.6992  165.7969 C.ar    1  UNL1       -0.0000
     17 C         138.1643  140.2347  164.3960 C.ar    1  UNL1       -0.0000
     18 C         139.4332  140.3127  163.5998 C.ar    1  UNL1       -0.0000
     19 C         140.7273  139.8552  164.2045 C.ar    1  UNL1       -0.0003
     20 C         141.9963  139.9332  163.4083 C.ar    1  UNL1       -0.0042
     21 C         142.5498  144.6163  162.8616 C.3     1  UNL1        0.2358
     22 O         141.4116  143.8582  163.4778 O.3     1  UNL1       -0.4721
     23 C         141.5342  143.3258  164.8748 C.ar    1  UNL1        0.1482
     24 C         142.8683  142.8748  165.3913 C.ar    1  UNL1        0.0373
     25 C         142.9908  142.3424  166.7882 C.ar    1  UNL1       -0.0011
     26 C         141.7792  142.2610  167.6688 C.ar    1  UNL1       -0.0209
     27 C         140.4450  142.7120  167.1523 C.ar    1  UNL1        0.0091
     28 C         140.3225  143.2443  165.7554 C.ar    1  UNL1        0.1020
     29 C         138.9884  143.6953  165.2389 C.1     1  UNL1        0.1035
     30 N         137.6543  144.1463  164.7225 N.1     1  UNL1       -0.1907
     31 C         141.9017  141.7286  169.0658 C.3     1  UNL1        0.0323
     32 C         141.1120  140.5228  169.4809 C.3     1  UNL1        0.0464
     33 C         140.3829  140.5186  170.7918 C.2     1  UNL1        0.0507
     34 O         140.6970  141.5567  171.8280 O.co2   1  UNL1       -0.5492
     35 O         139.3399  139.4762  171.0665 O.co2   1  UNL1       -0.5492
@<TRIPOS>UNITY_ATOM_ATTR
34 1
charge -1
@<TRIPOS>BOND
     1     7     8    1
     2     8     9    1
     3     8    10    1
     4    10    11    1
     5    11    12   ar
     6    12    13   ar
     7    13    14   ar
     8    14    15   ar
     9    15    16   ar
    10    16    17   ar
    11    17    18   ar
    12    18    19   ar
    13    19    20   ar
    14     8     5    1
    15     5     4    1
    16     4     1    1
    17     1     2    1
    18     1    21    1
    19    21    22    1
    20    22    23    1
    21    23    24   ar
    22    24    25   ar
    23    25    26   ar
    24    26    31    1
    25    31    32    1
    26    32    33    1
    27    33    34   ar
    28    33    35   ar
    29    26    27   ar
    30    27    28   ar
    31    28    29    1
    32    29    30    3
    33    20    11   ar
    34    28    23   ar
    35    19    14   ar
    36     5     6    1
    37     2     3    1
@<TRIPOS>MOLECULE
*****
 35 37 0 0 0
SMALL
GASTEIGER

@<TRIPOS>ATOM
      1 C         138.3048  143.4060  162.2398 C.3     1  UNL1        0.1697
      2 O         137.3471  144.3997  162.8276 O.3     1  UNL1       -0.3793
      3 H         136.4388  144.0775  162.7177 H       1  UNL1        0.2106
      4 C         137.7866  142.1471  161.6099 C.3     1  UNL1        0.1020
      5 N         137.1274  141.1003  162.4583 N.3     1  UNL1       -0.2972
      6 H         136.7987  141.5693  163.3023 H       1  UNL1        0.1233
      7 C         137.9511  140.4477  164.3010 C.3     1  UNL1        0.0161
      8 C         137.9054  139.8985  162.9059 C.3     1  UNL1        0.0461
      9 C         137.8597  139.3493  161.5108 C.3     1  UNL1        0.0161
     10 C         138.6834  138.6967  163.3535 C.3     1  UNL1        0.0408
     11 C         140.1237  138.8397  163.7476 C.ar    1  UNL1       -0.0209
     12 C         140.6458  138.1200  164.9556 C.ar    1  UNL1       -0.0042
     13 C         142.0860  138.2630  165.3497 C.ar    1  UNL1       -0.0003
     14 C         143.0042  139.1259  164.5357 C.ar    1  UNL1       -0.0000
     15 C         144.4444  139.2689  164.9298 C.ar    1  UNL1       -0.0000
     16 C         145.3625  140.1317  164.1158 C.ar    1  UNL1       -0.0000
     17 C         144.8404  140.8515  162.9078 C.ar    1  UNL1       -0.0000
     18 C         143.4002  140.7085  162.5137 C.ar    1  UNL1       -0.0000
     19 C         142.4821  139.8457  163.3277 C.ar    1  UNL1       -0.0003
     20 C         141.0418  139.7026  162.9336 C.ar    1  UNL1       -0.0042
     21 C         139.7805  143.6711  162.2820 C.3     1  UNL1        0.2358
     22 O         140.3872  144.3473  163.4756 O.3     1  UNL1       -0.4721
     23 C         141.0008  143.5267  164.5712 C.ar    1  UNL1        0.1482
     24 C         140.1222  142.7916  165.5395 C.ar    1  UNL1        0.0373
     25 C         140.7357  141.9711  166.6350 C.ar    1  UNL1       -0.0011
     26 C         142.2279  141.8857  166.7623 C.ar    1  UNL1       -0.0209
     27 C         143.1065  142.6208  165.7940 C.ar    1  UNL1        0.0091
     28 C         142.4929  143.4413  164.6984 C.ar    1  UNL1        0.1020
     29 C         143.3715  144.1765  163.7301 C.1     1  UNL1        0.1035
     30 N         144.2501  144.9116  162.7617 N.1     1  UNL1       -0.1907
     31 C         142.8414  141.0651  167.8579 C.3     1  UNL1        0.0323
     32 C         142.5529  141.3940  169.2926 C.3     1  UNL1        0.0464
     33 C         143.2195  142.5712  169.9409 C.2     1  UNL1        0.0507
     34 O         144.6191  142.9473  169.5541 O.co2   1  UNL1       -0.5492
     35 O         142.4864  143.3721  170.9758 O.co2   1  UNL1       -0.5492
@<TRIPOS>UNITY_ATOM_ATTR
34 1
charge -1
@<TRIPOS>BOND
     1     7     8    1
     2     8     9    1
     3     8    10    1
     4    10    11    1
     5    11    12   ar
     6    12    13   ar
     7    13    14   ar
     8    14    15   ar
     9    15    16   ar
    10    16    17   ar
    11    17    18   ar
    12    18    19   ar
    13    19    20   ar
    14     8     5    1
    15     5     4    1
    16     4     1    1
    17     1     2    1
    18     1    21    1
    19    21    22    1
    20    22    23    1
    21    23    24   ar
    22    24    25   ar
    23    25    26   ar
    24    26    31    1
    25    31    32    1
    26    32    33    1
    27    33    34   ar
    28    33    35   ar
    29    26    27   ar
    30    27    28   ar
    31    28    29    1
    32    29    30    3
    33    20    11   ar
    34    28    23   ar
    35    19    14   ar
    36     5     6    1
    37     2     3    1
@<TRIPOS>MOLECULE
*****
 35 37 0 0 0
SMALL
GASTEIGER

@<TRIPOS>ATOM
      1 C         142.8411  144.7290  163.2704 C.3     1  UNL1        0.1697
      2 O         144.0186  145.4427  162.6751 O.3     1  UNL1       -0.3793
      3 H         143.8555  146.3988  162.6841 H       1  UNL1        0.2106
      4 C         141.6603  145.5118  163.7630 C.3     1  UNL1        0.1020
      5 N         140.4479  145.6673  162.8935 N.3     1  UNL1       -0.2972
      6 H         139.9891  146.5321  163.1799 H       1  UNL1        0.1233
      7 C         139.6430  144.3719  161.4190 C.3     1  UNL1        0.0161
      8 C         139.3928  144.6012  162.8801 C.3     1  UNL1        0.0461
      9 C         139.1426  144.8306  164.3412 C.3     1  UNL1        0.0161
     10 C         138.3376  143.5351  162.8668 C.3     1  UNL1        0.0408
     11 C         138.6496  142.1646  163.3907 C.ar    1  UNL1       -0.0209
     12 C         137.7892  141.5560  164.4581 C.ar    1  UNL1       -0.0042
     13 C         138.1011  140.1855  164.9820 C.ar    1  UNL1       -0.0003
     14 C         139.2733  139.4236  164.4385 C.ar    1  UNL1       -0.0000
     15 C         139.5852  138.0531  164.9624 C.ar    1  UNL1       -0.0000
     16 C         140.7574  137.2913  164.4188 C.ar    1  UNL1       -0.0000
     17 C         141.6178  137.8999  163.3514 C.ar    1  UNL1       -0.0000
     18 C         141.3059  139.2704  162.8275 C.ar    1  UNL1       -0.0000
     19 C         140.1337  140.0322  163.3710 C.ar    1  UNL1       -0.0003
     20 C         139.8218  141.4028  162.8471 C.ar    1  UNL1       -0.0042
     21 C         142.8446  143.2325  163.3729 C.3     1  UNL1        0.2358
     22 O         143.4101  142.5656  164.5917 O.3     1  UNL1       -0.4721
     23 C         142.4914  141.9337  165.5952 C.ar    1  UNL1        0.1482
     24 C         141.3444  142.7179  166.1601 C.ar    1  UNL1        0.0373
     25 C         140.4258  142.0860  167.1635 C.ar    1  UNL1       -0.0011
     26 C         140.6542  140.6698  167.6020 C.ar    1  UNL1       -0.0209
     27 C         141.8013  139.8856  167.0370 C.ar    1  UNL1        0.0091
     28 C         142.7199  140.5175  166.0336 C.ar    1  UNL1        0.1020
     29 C         143.8670  139.7332  165.4686 C.1     1  UNL1        0.1035
     30 N         145.0140  138.9489  164.9037 N.1     1  UNL1       -0.1907
     31 C         139.7356  140.0379  168.6054 C.3     1  UNL1        0.0323
     32 C         139.4958  140.7052  169.9273 C.3     1  UNL1        0.0464
     33 C         140.6539  141.0353  170.8217 C.2     1  UNL1        0.0507
     34 O         140.5405  142.1556  171.8127 O.co2   1  UNL1       -0.5492
     35 O         141.9252  140.2452  170.7252 O.co2   1  UNL1       -0.5492
@<TRIPOS>UNITY_ATOM_ATTR
34 1
charge -1
@<TRIPOS>BOND
     1     7     8    1
     2     8     9    1
     3     8    10    1
     4    10    11    1
     5    11    12   ar
     6    12    13   ar
     7    13    14   ar
     8    14    15   ar
     9    15    16   ar
    10    16    17   ar
    11    17    18   ar
    12    18    19   ar
    13    19    20   ar
    14     8     5    1
    15     5     4    1
    16     4     1    1
    17     1     2    1
    18     1    21    1
    19    21    22    1
    20    22    23    1
    21    23    24   ar
    22    24    25   ar
    23    25    26   ar
    24    26    31    1
    25    31    32    1
    26    32    33    1
    27    33    34   ar
    28    33    35   ar
    29    26    27   ar
    30    27    28   ar
    31    28    29    1
    32    29    30    3
    33    20    11   ar
    34    28    23   ar
    35    19    14   ar
    36     5     6    1
    37     2     3    1
@<TRIPOS>MOLECULE
*****
 35 37 0 0 0
SMALL
GASTEIGER

@<TRIPOS>ATOM
      1 C         137.7911  143.2350  162.6214 C.3     1  UNL1        0.1697
      2 O         137.6818  142.7141  161.2189 O.3     1  UNL1       -0.3793
      3 H         137.9797  143.3959  160.5966 H       1  UNL1        0.2106
      4 C         138.3023  144.6234  162.8680 C.3     1  UNL1        0.1020
      5 N         139.3812  145.1916  161.9942 N.3     1  UNL1       -0.2972
      6 H         139.1654  144.9087  161.0383 H       1  UNL1        0.1233
      7 C         140.6792  145.2578  163.6708 C.3     1  UNL1        0.0161
      8 C         140.8153  144.8272  162.2404 C.3     1  UNL1        0.0461
      9 C         140.9514  144.3965  160.8100 C.3     1  UNL1        0.0161
     10 C         142.2493  144.4627  162.4866 C.3     1  UNL1        0.0408
     11 C         142.5855  143.2647  163.3244 C.ar    1  UNL1       -0.0209
     12 C         143.4864  143.4111  164.5148 C.ar    1  UNL1       -0.0042
     13 C         143.8226  142.2132  165.3527 C.ar    1  UNL1       -0.0003
     14 C         143.2579  140.8690  165.0002 C.ar    1  UNL1       -0.0000
     15 C         143.5942  139.6711  165.8381 C.ar    1  UNL1       -0.0000
     16 C         143.0295  138.3269  165.4856 C.ar    1  UNL1       -0.0000
     17 C         142.1286  138.1806  164.2952 C.ar    1  UNL1       -0.0000
     18 C         141.7924  139.3785  163.4573 C.ar    1  UNL1       -0.0000
     19 C         142.3571  140.7226  163.8098 C.ar    1  UNL1       -0.0003
     20 C         142.0209  141.9206  162.9719 C.ar    1  UNL1       -0.0042
     21 C         137.3891  142.3675  163.7771 C.3     1  UNL1        0.2358
     22 O         138.2620  141.2209  164.1935 O.3     1  UNL1       -0.4721
     23 C         139.1622  141.3580  165.3856 C.ar    1  UNL1        0.1482
     24 C         139.7183  142.7012  165.7550 C.ar    1  UNL1        0.0373
     25 C         140.6184  142.8382  166.9471 C.ar    1  UNL1       -0.0011
     26 C         140.9623  141.6320  167.7697 C.ar    1  UNL1       -0.0209
     27 C         140.4062  140.2888  167.4003 C.ar    1  UNL1        0.0091
     28 C         139.5061  140.1518  166.2083 C.ar    1  UNL1        0.1020
     29 C         138.9499  138.8085  165.8388 C.1     1  UNL1        0.1035
     30 N         138.3938  137.4653  165.4694 N.1     1  UNL1       -0.1907
     31 C         141.8624  141.7690  168.9619 C.3     1  UNL1        0.0323
     32 C         141.7833  140.7722  170.0799 C.3     1  UNL1        0.0464
     33 C         140.6452  140.8281  171.0555 C.2     1  UNL1        0.0507
     34 O         139.6159  139.7371  171.0704 O.co2   1  UNL1       -0.5492
     35 O         140.5365  141.9749  172.0161 O.co2   1  UNL1       -0.5492
@<TRIPOS>UNITY_ATOM_ATTR
34 1
charge -1
@<TRIPOS>BOND
     1     7     8    1
     2     8     9    1
     3     8    10    1
     4    10    11    1
     5    11    12   ar
     6    12    13   ar
     7    13    14   ar
     8    14    15   ar
     9    15    16   ar
    10    16    17   ar
    11    17    18   ar
    12    18    19   ar
    13    19    20   ar
    14     8     5    1
    15     5     4    1
    16     4     1    1
    17     1     2    1
    18     1    21    1
    19    21    22    1
    20    22    23    1
    21    23    24   ar
    22    24    25   ar
    23    25    26   ar
    24    26    31    1
    25    31    32    1
    26    32    33    1
    27    33    34   ar
    28    33    35   ar
    29    26    27   ar
    30    27    28   ar
    31    28    29    1
    32    29    30    3
    33    20    11   ar
    34    28    23   ar
    35    19    14   ar
    36     5     6    1
    37     2     3    1
@<TRIPOS>MOLECULE
*****
 35 37 0 0 0
SMALL
GASTEIGER

@<TRIPOS>ATOM
      1 C         144.3964  142.6861  162.2617 C.3     1  UNL1        0.1697
      2 O         145.6777  142.1309  161.7138 O.3     1  UNL1       -0.3793
      3 H         146.3055  142.8548  161.5631 H       1  UNL1        0.2106
      4 C         144.2553  144.1620  162.4894 C.3     1  UNL1        0.1020
      5 N         143.0549  144.8909  161.9621 N.3     1  UNL1       -0.2972
      6 H         143.3184  145.8729  161.8819 H       1  UNL1        0.1233
      7 C         141.0325  144.4992  161.4557 C.3     1  UNL1        0.0161
      8 C         141.7606  144.8503  162.7192 C.3     1  UNL1        0.0461
      9 C         142.4887  145.2014  163.9828 C.3     1  UNL1        0.0161
     10 C         140.4663  144.8098  163.4763 C.3     1  UNL1        0.0408
     11 C         140.0853  143.5793  164.2450 C.ar    1  UNL1       -0.0209
     12 C         140.0239  143.6200  165.7432 C.ar    1  UNL1       -0.0042
     13 C         139.6429  142.3896  166.5119 C.ar    1  UNL1       -0.0003
     14 C         139.3232  141.1184  165.7824 C.ar    1  UNL1       -0.0000
     15 C         138.9422  139.8881  166.5511 C.ar    1  UNL1       -0.0000
     16 C         138.6226  138.6170  165.8215 C.ar    1  UNL1       -0.0000
     17 C         138.6840  138.5763  164.3234 C.ar    1  UNL1       -0.0000
     18 C         139.0650  139.8067  163.5547 C.ar    1  UNL1       -0.0000
     19 C         139.3846  141.0778  164.2842 C.ar    1  UNL1       -0.0003
     20 C         139.7657  142.3083  163.5155 C.ar    1  UNL1       -0.0042
     21 C         143.2563  141.7655  162.5819 C.3     1  UNL1        0.2358
     22 O         143.4514  140.6402  163.5544 O.3     1  UNL1       -0.4721
     23 C         143.2224  140.8669  165.0194 C.ar    1  UNL1        0.1482
     24 C         143.5759  142.1867  165.6384 C.ar    1  UNL1        0.0373
     25 C         143.3470  142.4133  167.1033 C.ar    1  UNL1       -0.0011
     26 C         142.7646  141.3201  167.9494 C.ar    1  UNL1       -0.0209
     27 C         142.4111  140.0003  167.3304 C.ar    1  UNL1        0.0091
     28 C         142.6400  139.7737  165.8654 C.ar    1  UNL1        0.1020
     29 C         142.2866  138.4539  165.2464 C.1     1  UNL1        0.1035
     30 N         141.9331  137.1341  164.6274 N.1     1  UNL1       -0.1907
     31 C         142.5356  141.5468  169.4144 C.3     1  UNL1        0.0323
     32 C         141.9498  140.4549  170.2597 C.3     1  UNL1        0.0464
     33 C         140.7165  140.7157  171.0728 C.2     1  UNL1        0.0507
     34 O         140.6182  141.9570  171.9092 O.co2   1  UNL1       -0.5492
     35 O         139.5816  139.7352  171.0494 O.co2   1  UNL1       -0.5492
@<TRIPOS>UNITY_ATOM_ATTR
34 1
charge -1
@<TRIPOS>BOND
     1     7     8    1
     2     8     9    1
     3     8    10    1
     4    10    11    1
     5    11    12   ar
     6    12    13   ar
     7    13    14   ar
     8    14    15   ar
     9    15    16   ar
    10    16    17   ar
    11    17    18   ar
    12    18    19   ar
    13    19    20   ar
    14     8     5    1
    15     5     4    1
    16     4     1    1
    17     1     2    1
    18     1    21    1
    19    21    22    1
    20    22    23    1
    21    23    24   ar
    22    24    25   ar
    23    25    26   ar
    24    26    31    1
    25    31    32    1
    26    32    33    1
    27    33    34   ar
    28    33    35   ar
    29    26    27   ar
    30    27    28   ar
    31    28    29    1
    32    29    30    3
    33    20    11   ar
    34    28    23   ar
    35    19    14   ar
    36     5     6    1
    37     2     3    1
@<TRIPOS>MOLECULE
*****
 35 37 0 0 0
SMALL
GASTEIGER

@<TRIPOS>ATOM
      1 C         137.8332  139.6477  161.7240 C.3     1  UNL1        0.1697
      2 O         137.5128  139.9442  160.2889 O.3     1  UNL1       -0.3793
      3 H         137.5955  139.1323  159.7647 H       1  UNL1        0.2106
      4 C         138.2090  138.2553  162.1363 C.3     1  UNL1        0.1020
      5 N         139.4983  137.6544  161.6601 N.3     1  UNL1       -0.2972
      6 H         139.3106  136.6708  161.4655 H       1  UNL1        0.1233
      7 C         139.8435  137.5811  163.7519 C.3     1  UNL1        0.0161
      8 C         140.7149  137.6978  162.5365 C.3     1  UNL1        0.0461
      9 C         141.5862  137.8145  161.3211 C.3     1  UNL1        0.0161
     10 C         141.9314  137.7413  163.4129 C.3     1  UNL1        0.0408
     11 C         142.4628  139.0592  163.8935 C.ar    1  UNL1       -0.0209
     12 C         143.1579  139.1489  165.2197 C.ar    1  UNL1       -0.0042
     13 C         143.6893  140.4667  165.7003 C.ar    1  UNL1       -0.0003
     14 C         143.5256  141.6949  164.8547 C.ar    1  UNL1       -0.0000
     15 C         144.0570  143.0126  165.3354 C.ar    1  UNL1       -0.0000
     16 C         143.8933  144.2407  164.4898 C.ar    1  UNL1       -0.0000
     17 C         143.1982  144.1510  163.1636 C.ar    1  UNL1       -0.0000
     18 C         142.6668  142.8332  162.6830 C.ar    1  UNL1       -0.0000
     19 C         142.8305  141.6051  163.5285 C.ar    1  UNL1       -0.0003
     20 C         142.2991  140.2873  163.0479 C.ar    1  UNL1       -0.0042
     21 C         137.7777  140.7435  162.7468 C.3     1  UNL1        0.2358
     22 O         137.6225  140.4060  164.2000 O.3     1  UNL1       -0.4721
     23 C         138.6248  140.9065  165.1975 C.ar    1  UNL1        0.1482
     24 C         139.3872  142.1693  164.9256 C.ar    1  UNL1        0.0373
     25 C         140.3895  142.6698  165.9230 C.ar    1  UNL1       -0.0011
     26 C         140.6295  141.9073  167.1923 C.ar    1  UNL1       -0.0209
     27 C         139.8671  140.6445  167.4642 C.ar    1  UNL1        0.0091
     28 C         138.8648  140.1441  166.4668 C.ar    1  UNL1        0.1020
     29 C         138.1024  138.8811  166.7386 C.1     1  UNL1        0.1035
     30 N         137.3400  137.6183  167.0105 N.1     1  UNL1       -0.1907
     31 C         141.6318  142.4078  168.1898 C.3     1  UNL1        0.0323
     32 C         141.1668  143.0683  169.4537 C.3     1  UNL1        0.0464
     33 C         141.9838  142.9502  170.7061 C.2     1  UNL1        0.0507
     34 O         141.5506  142.0188  171.7992 O.co2   1  UNL1       -0.5492
     35 O         143.2340  143.7636  170.8655 O.co2   1  UNL1       -0.5492
@<TRIPOS>UNITY_ATOM_ATTR
34 1
charge -1
@<TRIPOS>BOND
     1     7     8    1
     2     8     9    1
     3     8    10    1
     4    10    11    1
     5    11    12   ar
     6    12    13   ar
     7    13    14   ar
     8    14    15   ar
     9    15    16   ar
    10    16    17   ar
    11    17    18   ar
    12    18    19   ar
    13    19    20   ar
    14     8     5    1
    15     5     4    1
    16     4     1    1
    17     1     2    1
    18     1    21    1
    19    21    22    1
    20    22    23    1
    21    23    24   ar
    22    24    25   ar
    23    25    26   ar
    24    26    31    1
    25    31    32    1
    26    32    33    1
    27    33    34   ar
    28    33    35   ar
    29    26    27   ar
    30    27    28   ar
    31    28    29    1
    32    29    30    3
    33    20    11   ar
    34    28    23   ar
    35    19    14   ar
    36     5     6    1
    37     2     3    1
