@<TRIPOS>MOLECULE
*****
 19 20 0 0 0
SMALL
GASTEIGER

@<TRIPOS>ATOM
      1 C         140.3665  140.5370  166.2020 C.3     1  UNL1        0.1598
      2 C         140.2011  141.1797  167.5473 C.ar    1  UNL1        0.0087
      3 C         139.6068  140.4004  168.6828 C.ar    1  UNL1       -0.0016
      4 C         139.4415  141.0432  170.0280 C.ar    1  UNL1       -0.0002
      5 C         139.8706  142.4651  170.2376 C.ar    1  UNL1       -0.0000
      6 C         140.4649  143.2443  169.1021 C.ar    1  UNL1       -0.0002
      7 C         140.6302  142.6016  167.7569 C.ar    1  UNL1       -0.0016
      8 C         141.7292  140.1241  165.7304 C.ar    1  UNL1        0.0087
      9 C         142.4027  140.8836  164.6261 C.ar    1  UNL1       -0.0016
     10 C         143.7655  140.4706  164.1546 C.ar    1  UNL1       -0.0002
     11 C         144.4547  139.2982  164.7873 C.ar    1  UNL1       -0.0000
     12 C         143.7812  138.5387  165.8916 C.ar    1  UNL1       -0.0002
     13 C         142.4185  138.9516  166.3632 C.ar    1  UNL1       -0.0016
     14 O         139.1690  140.3072  165.3283 O.3     1  UNL1       -0.3459
     15 C         138.3675  139.0473  165.4706 C.3     1  UNL1        0.1602
     16 C         138.9108  137.7499  164.9496 C.3     1  UNL1        0.1047
     17 C         138.6124  137.9775  162.3788 C.3     1  UNL1        0.0897
     18 N         139.4814  137.6781  163.5642 N.3     1  UNL1       -0.2682
     19 C         140.9208  137.3068  163.3642 C.3     1  UNL1        0.0897
@<TRIPOS>BOND
     1    17    18    1
     2    18    19    1
     3    18    16    1
     4    16    15    1
     5    15    14    1
     6    14     1    1
     7     1     2    1
     8     2     3   ar
     9     3     4   ar
    10     4     5   ar
    11     5     6   ar
    12     6     7   ar
    13     1     8    1
    14     8     9   ar
    15     9    10   ar
    16    10    11   ar
    17    11    12   ar
    18    12    13   ar
    19     7     2   ar
    20    13     8   ar
@<TRIPOS>MOLECULE
*****
 19 20 0 0 0
SMALL
GASTEIGER

@<TRIPOS>ATOM
      1 C         141.2603  141.9509  166.0493 C.3     1  UNL1        0.1598
      2 C         141.6042  142.3119  167.4640 C.ar    1  UNL1        0.0087
      3 C         140.5723  142.9474  168.3479 C.ar    1  UNL1       -0.0016
      4 C         140.9163  143.3084  169.7626 C.ar    1  UNL1       -0.0002
      5 C         142.2921  143.0339  170.2934 C.ar    1  UNL1       -0.0000
      6 C         143.3240  142.3984  169.4095 C.ar    1  UNL1       -0.0002
      7 C         142.9800  142.0374  167.9948 C.ar    1  UNL1       -0.0016
      8 C         140.1280  142.6451  165.3521 C.ar    1  UNL1        0.0087
      9 C         138.8392  141.9178  165.1074 C.ar    1  UNL1       -0.0016
     10 C         137.7069  142.6121  164.4103 C.ar    1  UNL1       -0.0002
     11 C         137.8635  144.0336  163.9579 C.ar    1  UNL1       -0.0000
     12 C         139.1523  144.7610  164.2026 C.ar    1  UNL1       -0.0002
     13 C         140.2846  144.0667  164.8997 C.ar    1  UNL1       -0.0016
     14 O         142.0487  140.8957  165.3317 O.3     1  UNL1       -0.3459
     15 C         142.2746  141.0040  163.8528 C.3     1  UNL1        0.1602
     16 C         143.1749  142.0730  163.3079 C.3     1  UNL1        0.1047
     17 C         145.6906  141.6567  163.8057 C.3     1  UNL1        0.0897
     18 N         144.4323  142.4391  164.0392 N.3     1  UNL1       -0.2682
     19 C         144.4315  143.5877  165.0040 C.3     1  UNL1        0.0897
@<TRIPOS>BOND
     1    17    18    1
     2    18    19    1
     3    18    16    1
     4    16    15    1
     5    15    14    1
     6    14     1    1
     7     1     2    1
     8     2     3   ar
     9     3     4   ar
    10     4     5   ar
    11     5     6   ar
    12     6     7   ar
    13     1     8    1
    14     8     9   ar
    15     9    10   ar
    16    10    11   ar
    17    11    12   ar
    18    12    13   ar
    19     7     2   ar
    20    13     8   ar
@<TRIPOS>MOLECULE
*****
 19 20 0 0 0
SMALL
GASTEIGER

@<TRIPOS>ATOM
      1 C         141.2498  141.9400  166.0932 C.3     1  UNL1        0.1598
      2 C         141.6014  142.3119  167.5033 C.ar    1  UNL1        0.0087
      3 C         142.9834  142.0518  168.0252 C.ar    1  UNL1       -0.0016
      4 C         143.3349  142.4237  169.4352 C.ar    1  UNL1       -0.0002
      5 C         142.3044  143.0557  170.3232 C.ar    1  UNL1       -0.0000
      6 C         140.9224  143.3157  169.8013 C.ar    1  UNL1       -0.0002
      7 C         140.5709  142.9439  168.3914 C.ar    1  UNL1       -0.0016
      8 C         140.1228  142.6386  165.3921 C.ar    1  UNL1        0.0087
      9 C         140.2785  144.0665  164.9599 C.ar    1  UNL1       -0.0016
     10 C         139.1513  144.7651  164.2588 C.ar    1  UNL1       -0.0002
     11 C         137.8685  144.0358  163.9899 C.ar    1  UNL1       -0.0000
     12 C         137.7127  142.6079  164.4221 C.ar    1  UNL1       -0.0002
     13 C         138.8398  141.9093  165.1232 C.ar    1  UNL1       -0.0016
     14 O         142.0255  140.8696  165.3843 O.3     1  UNL1       -0.3459
     15 C         142.2838  140.9814  163.9110 C.3     1  UNL1        0.1602
     16 C         143.1673  142.0737  163.3853 C.3     1  UNL1        0.1047
     17 C         144.4908  143.5234  165.0872 C.3     1  UNL1        0.0897
     18 N         144.4501  142.4047  164.0889 N.3     1  UNL1       -0.2682
     19 C         145.6920  141.6169  163.7941 C.3     1  UNL1        0.0897
@<TRIPOS>BOND
     1    17    18    1
     2    18    19    1
     3    18    16    1
     4    16    15    1
     5    15    14    1
     6    14     1    1
     7     1     2    1
     8     2     3   ar
     9     3     4   ar
    10     4     5   ar
    11     5     6   ar
    12     6     7   ar
    13     1     8    1
    14     8     9   ar
    15     9    10   ar
    16    10    11   ar
    17    11    12   ar
    18    12    13   ar
    19     7     2   ar
    20    13     8   ar
@<TRIPOS>MOLECULE
*****
 19 20 0 0 0
SMALL
GASTEIGER

@<TRIPOS>ATOM
      1 C         141.0977  141.7837  166.1758 C.3     1  UNL1        0.1598
      2 C         141.5485  142.2182  167.5389 C.ar    1  UNL1        0.0087
      3 C         142.9646  141.9792  167.9721 C.ar    1  UNL1       -0.0016
      4 C         143.4153  142.4136  169.3351 C.ar    1  UNL1       -0.0002
      5 C         142.4501  143.0871  170.2650 C.ar    1  UNL1       -0.0000
      6 C         141.0340  143.3261  169.8318 C.ar    1  UNL1       -0.0002
      7 C         140.5833  142.8917  168.4688 C.ar    1  UNL1       -0.0016
      8 C         140.0112  142.5388  165.4691 C.ar    1  UNL1        0.0087
      9 C         138.7477  141.8363  165.0691 C.ar    1  UNL1       -0.0016
     10 C         137.6612  142.5914  164.3624 C.ar    1  UNL1       -0.0002
     11 C         137.8382  144.0490  164.0558 C.ar    1  UNL1       -0.0000
     12 C         139.1018  144.7515  164.4557 C.ar    1  UNL1       -0.0002
     13 C         140.1882  143.9964  165.1624 C.ar    1  UNL1       -0.0016
     14 O         141.7334  140.5942  165.5194 O.3     1  UNL1       -0.3459
     15 C         141.3329  139.2081  165.9296 C.3     1  UNL1        0.1602
     16 C         140.8646  138.2261  164.8968 C.3     1  UNL1        0.1047
     17 C         138.4242  138.1783  165.7870 C.3     1  UNL1        0.0897
     18 N         139.3966  138.0362  164.6538 N.3     1  UNL1       -0.2682
     19 C         138.9010  137.7043  163.2775 C.3     1  UNL1        0.0897
@<TRIPOS>BOND
     1    17    18    1
     2    18    19    1
     3    18    16    1
     4    16    15    1
     5    15    14    1
     6    14     1    1
     7     1     2    1
     8     2     3   ar
     9     3     4   ar
    10     4     5   ar
    11     5     6   ar
    12     6     7   ar
    13     1     8    1
    14     8     9   ar
    15     9    10   ar
    16    10    11   ar
    17    11    12   ar
    18    12    13   ar
    19     7     2   ar
    20    13     8   ar
@<TRIPOS>MOLECULE
*****
 19 20 0 0 0
SMALL
GASTEIGER

@<TRIPOS>ATOM
      1 C         141.8129  141.7592  166.0074 C.3     1  UNL1        0.1598
      2 C         143.1133  141.5738  165.2830 C.ar    1  UNL1        0.0087
      3 C         143.6266  140.1921  165.0051 C.ar    1  UNL1       -0.0016
      4 C         144.9269  140.0067  164.2808 C.ar    1  UNL1       -0.0002
      5 C         145.7139  141.2031  163.8343 C.ar    1  UNL1       -0.0000
      6 C         145.2006  142.5848  164.1121 C.ar    1  UNL1       -0.0002
      7 C         143.9002  142.7702  164.8365 C.ar    1  UNL1       -0.0016
      8 C         141.8077  142.2412  167.4278 C.ar    1  UNL1        0.0087
      9 C         143.0342  142.0852  168.2772 C.ar    1  UNL1       -0.0016
     10 C         143.0290  142.5673  169.6977 C.ar    1  UNL1       -0.0002
     11 C         141.7974  143.2053  170.2687 C.ar    1  UNL1       -0.0000
     12 C         140.5710  143.3613  169.4193 C.ar    1  UNL1       -0.0002
     13 C         140.5761  142.8793  167.9989 C.ar    1  UNL1       -0.0016
     14 O         140.5177  141.4626  165.3114 O.3     1  UNL1       -0.3459
     15 C         140.2887  141.9528  163.9124 C.3     1  UNL1        0.1602
     16 C         140.1476  143.4222  163.6463 C.3     1  UNL1        0.1047
     17 C         137.7301  144.1627  163.0484 C.3     1  UNL1        0.0897
     18 N         138.8783  144.1325  164.0131 N.3     1  UNL1       -0.2682
     19 C         138.7573  144.8124  165.3446 C.3     1  UNL1        0.0897
@<TRIPOS>BOND
     1    17    18    1
     2    18    19    1
     3    18    16    1
     4    16    15    1
     5    15    14    1
     6    14     1    1
     7     1     2    1
     8     2     3   ar
     9     3     4   ar
    10     4     5   ar
    11     5     6   ar
    12     6     7   ar
    13     1     8    1
    14     8     9   ar
    15     9    10   ar
    16    10    11   ar
    17    11    12   ar
    18    12    13   ar
    19     7     2   ar
    20    13     8   ar
@<TRIPOS>MOLECULE
*****
 19 20 0 0 0
SMALL
GASTEIGER

@<TRIPOS>ATOM
      1 C         139.1263  140.2900  165.9260 C.3     1  UNL1        0.1598
      2 C         138.9600  141.6601  165.3384 C.ar    1  UNL1        0.0087
      3 C         139.8503  142.7813  165.7860 C.ar    1  UNL1       -0.0016
      4 C         139.6840  144.1513  165.1984 C.ar    1  UNL1       -0.0002
      5 C         138.6274  144.4002  164.1632 C.ar    1  UNL1       -0.0000
      6 C         137.7371  143.2790  163.7156 C.ar    1  UNL1       -0.0002
      7 C         137.9034  141.9090  164.3032 C.ar    1  UNL1       -0.0016
      8 C         140.1671  140.0465  166.9783 C.ar    1  UNL1        0.0087
      9 C         141.5745  139.7156  166.5788 C.ar    1  UNL1       -0.0016
     10 C         142.6154  139.4721  167.6313 C.ar    1  UNL1       -0.0002
     11 C         142.2487  139.5596  169.0831 C.ar    1  UNL1       -0.0000
     12 C         140.8413  139.8905  169.4826 C.ar    1  UNL1       -0.0002
     13 C         139.8005  140.1340  168.4303 C.ar    1  UNL1       -0.0016
     14 O         138.2518  139.1634  165.4612 O.3     1  UNL1       -0.3459
     15 C         138.8699  137.8962  164.9494 C.3     1  UNL1        0.1602
     16 C         138.9948  137.6659  163.4725 C.3     1  UNL1        0.1047
     17 C         137.8054  139.1708  161.7201 C.3     1  UNL1        0.0897
     18 N         139.0214  138.8334  162.5310 N.3     1  UNL1       -0.2682
     19 C         140.2640  139.6633  162.4003 C.3     1  UNL1        0.0897
@<TRIPOS>BOND
     1    17    18    1
     2    18    19    1
     3    18    16    1
     4    16    15    1
     5    15    14    1
     6    14     1    1
     7     1     2    1
     8     2     3   ar
     9     3     4   ar
    10     4     5   ar
    11     5     6   ar
    12     6     7   ar
    13     1     8    1
    14     8     9   ar
    15     9    10   ar
    16    10    11   ar
    17    11    12   ar
    18    12    13   ar
    19     7     2   ar
    20    13     8   ar
@<TRIPOS>MOLECULE
*****
 19 20 0 0 0
SMALL
GASTEIGER

@<TRIPOS>ATOM
      1 C         139.0818  140.3414  165.8222 C.3     1  UNL1        0.1598
      2 C         140.1277  140.1016  166.8705 C.ar    1  UNL1        0.0087
      3 C         141.5333  139.7695  166.4653 C.ar    1  UNL1       -0.0016
      4 C         142.5791  139.5297  167.5135 C.ar    1  UNL1       -0.0002
      5 C         142.2193  139.6220  168.9668 C.ar    1  UNL1       -0.0000
      6 C         140.8138  139.9541  169.3719 C.ar    1  UNL1       -0.0002
      7 C         139.7680  140.1939  168.3237 C.ar    1  UNL1       -0.0016
      8 C         138.9027  141.7127  165.2414 C.ar    1  UNL1        0.0087
      9 C         137.8704  141.9482  164.1789 C.ar    1  UNL1       -0.0016
     10 C         137.6913  143.3196  163.5981 C.ar    1  UNL1       -0.0002
     11 C         138.5446  144.4554  164.0797 C.ar    1  UNL1       -0.0000
     12 C         139.5769  144.2199  165.1421 C.ar    1  UNL1       -0.0002
     13 C         139.7560  142.8486  165.7230 C.ar    1  UNL1       -0.0016
     14 O         138.2151  139.2099  165.3549 O.3     1  UNL1       -0.3459
     15 C         138.8361  137.9024  164.9615 C.3     1  UNL1        0.1602
     16 C         139.3284  137.6977  163.5595 C.3     1  UNL1        0.1047
     17 C         140.1866  139.7529  162.2218 C.3     1  UNL1        0.0897
     18 N         139.1044  138.7591  162.5234 N.3     1  UNL1       -0.2682
     19 C         137.7982  138.8265  161.7891 C.3     1  UNL1        0.0897
@<TRIPOS>BOND
     1    17    18    1
     2    18    19    1
     3    18    16    1
     4    16    15    1
     5    15    14    1
     6    14     1    1
     7     1     2    1
     8     2     3   ar
     9     3     4   ar
    10     4     5   ar
    11     5     6   ar
    12     6     7   ar
    13     1     8    1
    14     8     9   ar
    15     9    10   ar
    16    10    11   ar
    17    11    12   ar
    18    12    13   ar
    19     7     2   ar
    20    13     8   ar
@<TRIPOS>MOLECULE
*****
 19 20 0 0 0
SMALL
GASTEIGER

@<TRIPOS>ATOM
      1 C         140.7641  142.1435  166.0066 C.3     1  UNL1        0.1598
      2 C         139.8061  142.8244  165.0745 C.ar    1  UNL1        0.0087
      3 C         140.0666  144.2326  164.6285 C.ar    1  UNL1       -0.0016
      4 C         139.1087  144.9134  163.6964 C.ar    1  UNL1       -0.0002
      5 C         137.8902  144.1860  163.2104 C.ar    1  UNL1       -0.0000
      6 C         137.6297  142.7778  163.6564 C.ar    1  UNL1       -0.0002
      7 C         138.5876  142.0970  164.5884 C.ar    1  UNL1       -0.0016
      8 C         140.3787  141.9069  167.4368 C.ar    1  UNL1        0.0087
      9 C         140.5575  142.9968  168.4518 C.ar    1  UNL1       -0.0016
     10 C         140.1722  142.7602  169.8821 C.ar    1  UNL1       -0.0002
     11 C         139.6080  141.4338  170.2973 C.ar    1  UNL1       -0.0000
     12 C         139.4293  140.3439  169.2823 C.ar    1  UNL1       -0.0002
     13 C         139.8146  140.5805  167.8521 C.ar    1  UNL1       -0.0016
     14 O         142.1073  141.6992  165.5084 O.3     1  UNL1       -0.3459
     15 C         143.3461  142.4247  165.9432 C.3     1  UNL1        0.1602
     16 C         144.0071  143.4019  165.0168 C.3     1  UNL1        0.1047
     17 C         144.4136  143.5993  162.4583 C.3     1  UNL1        0.0897
     18 N         144.6773  142.9144  163.7665 N.3     1  UNL1       -0.2682
     19 C         145.6113  141.7421  163.8244 C.3     1  UNL1        0.0897
@<TRIPOS>BOND
     1    17    18    1
     2    18    19    1
     3    18    16    1
     4    16    15    1
     5    15    14    1
     6    14     1    1
     7     1     2    1
     8     2     3   ar
     9     3     4   ar
    10     4     5   ar
    11     5     6   ar
    12     6     7   ar
    13     1     8    1
    14     8     9   ar
    15     9    10   ar
    16    10    11   ar
    17    11    12   ar
    18    12    13   ar
    19     7     2   ar
    20    13     8   ar
@<TRIPOS>MOLECULE
*****
 19 20 0 0 0
SMALL
GASTEIGER

@<TRIPOS>ATOM
      1 C         141.2884  142.0005  166.0200 C.3     1  UNL1        0.1598
      2 C         140.1362  142.6756  165.3367 C.ar    1  UNL1        0.0087
      3 C         138.8558  141.9278  165.1104 C.ar    1  UNL1       -0.0016
      4 C         137.7037  142.6030  164.4272 C.ar    1  UNL1       -0.0002
      5 C         137.8321  144.0259  163.9702 C.ar    1  UNL1       -0.0000
      6 C         139.1125  144.7737  164.1964 C.ar    1  UNL1       -0.0002
      7 C         140.2646  144.0985  164.8797 C.ar    1  UNL1       -0.0016
      8 C         141.6230  142.3437  167.4413 C.ar    1  UNL1        0.0087
      9 C         140.5761  142.9388  168.3356 C.ar    1  UNL1       -0.0016
     10 C         140.9108  143.2820  169.7570 C.ar    1  UNL1       -0.0002
     11 C         142.2924  143.0301  170.2840 C.ar    1  UNL1       -0.0000
     12 C         143.3393  142.4350  169.3897 C.ar    1  UNL1       -0.0002
     13 C         143.0046  142.0918  167.9684 C.ar    1  UNL1       -0.0016
     14 O         142.1058  140.9821  165.2819 O.3     1  UNL1       -0.3459
     15 C         142.9821  141.4075  164.1413 C.3     1  UNL1        0.1602
     16 C         143.9583  142.5316  164.3242 C.3     1  UNL1        0.1047
     17 C         143.6806  145.0388  163.7020 C.3     1  UNL1        0.0897
     18 N         144.0313  143.6341  163.3096 N.3     1  UNL1       -0.2682
     19 C         144.4549  143.3320  161.9028 C.3     1  UNL1        0.0897
@<TRIPOS>BOND
     1    17    18    1
     2    18    19    1
     3    18    16    1
     4    16    15    1
     5    15    14    1
     6    14     1    1
     7     1     2    1
     8     2     3   ar
     9     3     4   ar
    10     4     5   ar
    11     5     6   ar
    12     6     7   ar
    13     1     8    1
    14     8     9   ar
    15     9    10   ar
    16    10    11   ar
    17    11    12   ar
    18    12    13   ar
    19     7     2   ar
    20    13     8   ar
