@<TRIPOS>MOLECULE
*****
 43 48 0 0 0
SMALL
GASTEIGER

@<TRIPOS>ATOM
      1 N         141.7154  141.2608  162.0523 N.am    1  UNL1       -0.2219
      2 C         141.8985  140.8046  160.6350 C.2     1  UNL1        0.3220
      3 O         142.4853  141.6143  159.5170 O.2     1  UNL1       -0.2512
      4 N         141.3916  139.3965  160.5322 N.am    1  UNL1       -0.1907
      5 C         140.8953  138.9825  161.8858 C.2     1  UNL1        0.2532
      6 O         140.6133  138.2369  161.8853 O.2     1  UNL1       -0.2723
      7 C         141.0954  140.1347  162.8253 C.3     1  UNL1        0.1438
      8 C         141.3557  141.3652  163.6427 C.3     1  UNL1        0.0453
      9 C         140.9985  141.3873  165.0993 C.3     1  UNL1        0.0746
     10 N         140.3810  140.1790  165.7386 N.3     1  UNL1       -0.2672
     11 C         140.1206  138.9486  164.9212 C.3     1  UNL1        0.0801
     12 C         140.4778  138.9264  163.4646 C.3     1  UNL1        0.0780
     13 C         141.5132  145.1082  163.0042 C.ar    1  UNL1        0.2293
     14 C         141.1415  143.7623  162.4562 C.ar    1  UNL1        0.0924
     15 C         142.0870  142.6068  162.6002 C.ar    1  UNL1        0.1453
     16 N         143.4042  142.7972  163.2922 N.ar    1  UNL1       -0.2084
     17 C         143.7759  144.1431  163.8401 C.ar    1  UNL1        0.2027
     18 N         142.8304  145.2987  163.6961 N.ar    1  UNL1       -0.1892
     19 C         139.6000  146.3028  161.7147 C.3     1  UNL1        0.2542
     20 O         140.5678  146.2638  162.8602 O.3     1  UNL1       -0.4560
     21 C         141.3826  138.5510  159.2933 C.ar    1  UNL1        0.0622
     22 C         140.1484  138.4779  158.4441 C.ar    1  UNL1        0.0154
     23 C         140.1395  137.6324  157.2051 C.ar    1  UNL1        0.0013
     24 C         141.3648  136.8599  156.8154 C.ar    1  UNL1        0.0001
     25 C         142.5991  136.9329  157.6647 C.ar    1  UNL1        0.0013
     26 C         142.6080  137.7785  158.9037 C.ar    1  UNL1        0.0154
     27 C         141.3558  136.0143  155.5765 C.ar    1  UNL1        0.0000
     28 C         140.7174  136.5302  154.3210 C.ar    1  UNL1        0.0000
     29 C         140.7085  135.6846  153.0821 C.ar    1  UNL1        0.0000
     30 C         141.3380  134.3232  153.0988 C.ar    1  UNL1        0.0000
     31 C         141.9764  133.8073  154.3543 C.ar    1  UNL1        0.0000
     32 C         141.9853  134.6528  155.5931 C.ar    1  UNL1        0.0000
     33 C         140.2175  137.6959  162.6471 C.2     1  UNL1        0.0534
     34 O         140.8342  136.9307  162.6995 O.co2   1  UNL1       -0.5491
     35 O         139.0172  137.6317  161.7498 O.co2   1  UNL1       -0.5491
     36 C         140.0238  140.2012  167.1953 C.3     1  UNL1        0.1183
     37 C         140.8423  141.0118  168.1560 C.ar    1  UNL1        0.0712
     38 N         140.3506  142.3528  168.6144 N.ar    1  UNL1       -0.2471
     39 C         141.1692  143.1634  169.5751 C.ar    1  UNL1        0.0985
     40 C         142.4794  142.6331  170.0773 C.ar    1  UNL1        0.0203
     41 C         142.9710  141.2922  169.6189 C.ar    1  UNL1       -0.0015
     42 C         142.1525  140.4816  168.6582 C.ar    1  UNL1       -0.0069
     43 C         142.6442  139.1406  168.1997 C.3     1  UNL1        0.0323
@<TRIPOS>UNITY_ATOM_ATTR
34 1
charge -1
@<TRIPOS>BOND
     1    19    20    1
     2    20    13    1
     3    13    14   ar
     4    14    15   ar
     5    15     1    1
     6     1     2   am
     7     2     3    2
     8     2     4   am
     9     4    21    1
    10    21    22   ar
    11    22    23   ar
    12    23    24   ar
    13    24    27    1
    14    27    28   ar
    15    28    29   ar
    16    29    30   ar
    17    30    31   ar
    18    31    32   ar
    19    24    25   ar
    20    25    26   ar
    21     4     5   am
    22     5     6    2
    23     5     7    1
    24     7     8    1
    25     8     9    1
    26     9    10    1
    27    10    36    1
    28    36    37    1
    29    37    38   ar
    30    38    39   ar
    31    39    40   ar
    32    40    41   ar
    33    41    42   ar
    34    42    43    1
    35    10    11    1
    36    11    12    1
    37    12    33    1
    38    33    34   ar
    39    33    35   ar
    40    15    16   ar
    41    16    17   ar
    42    17    18   ar
    43    18    13   ar
    44     7     1    1
    45    42    37   ar
    46    26    21   ar
    47    12     7    1
    48    32    27   ar
@<TRIPOS>MOLECULE
*****
 43 48 0 0 0
SMALL
GASTEIGER

@<TRIPOS>ATOM
      1 N         139.1871  142.1447  159.0012 N.am    1  UNL1       -0.2219
      2 C         139.3496  141.6690  160.4145 C.2     1  UNL1        0.3220
      3 O         138.9283  140.3322  160.9488 O.2     1  UNL1       -0.2512
      4 N         140.0073  142.7648  161.1997 N.am    1  UNL1       -0.1907
      5 C         140.2514  143.9178  160.2717 C.2     1  UNL1        0.2532
      6 O         140.6017  144.5305  160.6423 O.2     1  UNL1       -0.2723
      7 C         139.7445  143.5345  158.9129 C.3     1  UNL1        0.1438
      8 C         139.1963  143.0136  157.6175 C.3     1  UNL1        0.0453
      9 C         139.2392  143.8699  156.3867 C.3     1  UNL1        0.0746
     10 N         139.8303  145.2470  156.4513 N.3     1  UNL1       -0.2672
     11 C         140.3784  145.7679  157.7467 C.3     1  UNL1        0.0801
     12 C         140.3355  144.9117  158.9775 C.3     1  UNL1        0.0780
     13 C         136.5042  140.7462  156.4330 C.ar    1  UNL1        0.2293
     14 C         137.1165  141.5238  157.5601 C.ar    1  UNL1        0.0924
     15 C         138.5748  141.3671  157.8740 C.ar    1  UNL1        0.1453
     16 N         139.4209  140.4328  157.0609 N.ar    1  UNL1       -0.2084
     17 C         138.8087  139.6552  155.9338 C.ar    1  UNL1        0.2027
     18 N         137.3503  139.8119  155.6198 N.ar    1  UNL1       -0.1892
     19 C         134.3187  139.8223  155.3748 C.3     1  UNL1        0.2542
     20 O         135.0458  140.9028  156.1189 O.3     1  UNL1       -0.4560
     21 C         140.3592  142.7163  162.6570 C.ar    1  UNL1        0.0622
     22 C         139.4856  143.4053  163.6629 C.ar    1  UNL1        0.0154
     23 C         139.8375  143.3567  165.1202 C.ar    1  UNL1        0.0013
     24 C         141.0631  142.6191  165.5717 C.ar    1  UNL1        0.0001
     25 C         141.9368  141.9300  164.5657 C.ar    1  UNL1        0.0013
     26 C         141.5848  141.9786  163.1084 C.ar    1  UNL1        0.0154
     27 C         141.4150  142.5705  167.0290 C.ar    1  UNL1        0.0000
     28 C         142.7933  142.1592  167.4544 C.ar    1  UNL1        0.0000
     29 C         143.1453  142.1106  168.9117 C.ar    1  UNL1        0.0000
     30 C         142.1188  142.4733  169.9436 C.ar    1  UNL1        0.0000
     31 C         140.7404  142.8846  169.5182 C.ar    1  UNL1        0.0000
     32 C         140.3885  142.9332  168.0609 C.ar    1  UNL1        0.0000
     33 C         140.8837  145.4325  160.2730 C.2     1  UNL1        0.0534
     34 O         141.8398  145.3264  160.4809 O.co2   1  UNL1       -0.5491
     35 O         139.9746  146.1152  161.2516 O.co2   1  UNL1       -0.5491
     36 C         139.8731  146.1032  155.2204 C.3     1  UNL1        0.1183
     37 C         139.5034  147.5546  155.3031 C.ar    1  UNL1        0.0712
     38 N         138.7077  148.0605  156.4696 N.ar    1  UNL1       -0.2471
     39 C         138.3380  149.5119  156.5523 C.ar    1  UNL1        0.0985
     40 C         138.7640  150.4573  155.4684 C.ar    1  UNL1        0.0203
     41 C         139.5596  149.9513  154.3019 C.ar    1  UNL1       -0.0015
     42 C         139.9294  148.5000  154.2192 C.ar    1  UNL1       -0.0069
     43 C         140.7251  147.9940  153.0526 C.3     1  UNL1        0.0323
@<TRIPOS>UNITY_ATOM_ATTR
34 1
charge -1
@<TRIPOS>BOND
     1    19    20    1
     2    20    13    1
     3    13    14   ar
     4    14    15   ar
     5    15     1    1
     6     1     2   am
     7     2     3    2
     8     2     4   am
     9     4    21    1
    10    21    22   ar
    11    22    23   ar
    12    23    24   ar
    13    24    27    1
    14    27    28   ar
    15    28    29   ar
    16    29    30   ar
    17    30    31   ar
    18    31    32   ar
    19    24    25   ar
    20    25    26   ar
    21     4     5   am
    22     5     6    2
    23     5     7    1
    24     7     8    1
    25     8     9    1
    26     9    10    1
    27    10    36    1
    28    36    37    1
    29    37    38   ar
    30    38    39   ar
    31    39    40   ar
    32    40    41   ar
    33    41    42   ar
    34    42    43    1
    35    10    11    1
    36    11    12    1
    37    12    33    1
    38    33    34   ar
    39    33    35   ar
    40    15    16   ar
    41    16    17   ar
    42    17    18   ar
    43    18    13   ar
    44     7     1    1
    45    42    37   ar
    46    26    21   ar
    47    12     7    1
    48    32    27   ar
@<TRIPOS>MOLECULE
*****
 43 48 0 0 0
SMALL
GASTEIGER

@<TRIPOS>ATOM
      1 N         140.2970  143.6564  159.2103 N.am    1  UNL1       -0.2219
      2 C         140.8652  143.9419  160.5689 C.2     1  UNL1        0.3220
      3 O         141.8378  145.0328  160.9064 O.2     1  UNL1       -0.2512
      4 N         140.2900  142.9448  161.5307 N.am    1  UNL1       -0.1907
      5 C         139.3663  142.0432  160.7666 C.2     1  UNL1        0.2532
      6 O         139.0323  141.4914  161.2350 O.2     1  UNL1       -0.2723
      7 C         139.3707  142.4830  159.3324 C.3     1  UNL1        0.1438
      8 C         139.4767  143.0344  157.9415 C.3     1  UNL1        0.0453
      9 C         138.6924  142.4103  156.8256 C.3     1  UNL1        0.0746
     10 N         137.8021  141.2348  157.1005 N.3     1  UNL1       -0.2672
     11 C         137.6961  140.6834  158.4914 C.3     1  UNL1        0.0801
     12 C         138.4804  141.3075  159.6074 C.3     1  UNL1        0.0780
     13 C         140.0933  146.3732  156.3246 C.ar    1  UNL1        0.2293
     14 C         139.7886  145.6178  157.5841 C.ar    1  UNL1        0.0924
     15 C         140.6017  144.4118  157.9507 C.ar    1  UNL1        0.1453
     16 N         141.7196  143.9613  157.0577 N.ar    1  UNL1       -0.2084
     17 C         142.0243  144.7166  155.7982 C.ar    1  UNL1        0.2027
     18 N         141.2111  145.9226  155.4316 N.ar    1  UNL1       -0.1892
     19 C         139.5245  148.2803  154.6546 C.3     1  UNL1        0.2542
     20 O         139.2802  147.5791  155.9579 O.3     1  UNL1       -0.4560
     21 C         140.5864  142.8636  162.9988 C.ar    1  UNL1        0.0622
     22 C         141.7973  142.1204  163.4795 C.ar    1  UNL1        0.0154
     23 C         142.0937  142.0392  164.9477 C.ar    1  UNL1        0.0013
     24 C         141.1791  142.7013  165.9352 C.ar    1  UNL1        0.0001
     25 C         139.9681  143.4446  165.4545 C.ar    1  UNL1        0.0013
     26 C         139.6718  143.5257  163.9863 C.ar    1  UNL1        0.0154
     27 C         141.4755  142.6201  167.4034 C.ar    1  UNL1        0.0000
     28 C         142.8014  142.0993  167.8732 C.ar    1  UNL1        0.0000
     29 C         143.0978  142.0181  169.3414 C.ar    1  UNL1        0.0000
     30 C         142.0682  142.4578  170.3397 C.ar    1  UNL1        0.0000
     31 C         140.7423  142.9786  169.8700 C.ar    1  UNL1        0.0000
     32 C         140.4459  143.0598  168.4019 C.ar    1  UNL1        0.0000
     33 C         138.3744  140.7560  160.9984 C.2     1  UNL1        0.0534
     34 O         138.9401  139.9985  161.2718 O.co2   1  UNL1       -0.5491
     35 O         137.4062  141.3592  161.9725 O.co2   1  UNL1       -0.5491
     36 C         137.0178  140.6107  155.9845 C.3     1  UNL1        0.1183
     37 C         135.5184  140.6280  156.0205 C.ar    1  UNL1        0.0712
     38 N         134.7859  139.9012  157.1091 N.ar    1  UNL1       -0.2471
     39 C         133.2863  139.9185  157.1451 C.ar    1  UNL1        0.0985
     40 C         132.5194  140.6626  156.0924 C.ar    1  UNL1        0.0203
     41 C         133.2519  141.3895  155.0038 C.ar    1  UNL1       -0.0015
     42 C         134.7514  141.3722  154.9678 C.ar    1  UNL1       -0.0069
     43 C         135.4839  142.0990  153.8792 C.3     1  UNL1        0.0323
@<TRIPOS>UNITY_ATOM_ATTR
34 1
charge -1
@<TRIPOS>BOND
     1    19    20    1
     2    20    13    1
     3    13    14   ar
     4    14    15   ar
     5    15     1    1
     6     1     2   am
     7     2     3    2
     8     2     4   am
     9     4    21    1
    10    21    22   ar
    11    22    23   ar
    12    23    24   ar
    13    24    27    1
    14    27    28   ar
    15    28    29   ar
    16    29    30   ar
    17    30    31   ar
    18    31    32   ar
    19    24    25   ar
    20    25    26   ar
    21     4     5   am
    22     5     6    2
    23     5     7    1
    24     7     8    1
    25     8     9    1
    26     9    10    1
    27    10    36    1
    28    36    37    1
    29    37    38   ar
    30    38    39   ar
    31    39    40   ar
    32    40    41   ar
    33    41    42   ar
    34    42    43    1
    35    10    11    1
    36    11    12    1
    37    12    33    1
    38    33    34   ar
    39    33    35   ar
    40    15    16   ar
    41    16    17   ar
    42    17    18   ar
    43    18    13   ar
    44     7     1    1
    45    42    37   ar
    46    26    21   ar
    47    12     7    1
    48    32    27   ar
@<TRIPOS>MOLECULE
*****
 43 48 0 0 0
SMALL
GASTEIGER

@<TRIPOS>ATOM
      1 N         139.9202  140.4946  159.2599 N.am    1  UNL1       -0.2219
      2 C         139.5352  141.0743  160.5888 C.2     1  UNL1        0.3220
      3 O         138.5205  142.1548  160.8187 O.2     1  UNL1       -0.2512
      4 N         140.3432  140.3839  161.6473 N.am    1  UNL1       -0.1907
      5 C         141.2275  139.3775  160.9727 C.2     1  UNL1        0.2532
      6 O         141.6806  138.9805  161.4948 O.2     1  UNL1       -0.2723
      7 C         140.9661  139.4458  159.4972 C.3     1  UNL1        0.1438
      8 C         140.6000  139.6268  158.0539 C.3     1  UNL1        0.0453
      9 C         141.2672  138.7929  157.0007 C.3     1  UNL1        0.0746
     10 N         142.3006  137.7780  157.3908 N.3     1  UNL1       -0.2672
     11 C         142.6667  137.5971  158.8341 C.3     1  UNL1        0.0801
     12 C         141.9994  138.4310  159.8873 C.3     1  UNL1        0.0780
     13 C         137.5301  140.6609  156.0961 C.ar    1  UNL1        0.2293
     14 C         138.0924  140.2619  157.4283 C.ar    1  UNL1        0.0924
     15 C         139.3579  140.8935  157.9278 C.ar    1  UNL1        0.1453
     16 N         140.0612  141.9240  157.0950 N.ar    1  UNL1       -0.2084
     17 C         139.4991  142.3230  155.7629 C.ar    1  UNL1        0.2027
     18 N         138.2334  141.6914  155.2634 N.ar    1  UNL1       -0.1892
     19 C         134.9348  140.5497  156.0559 C.3     1  UNL1        0.2542
     20 O         136.2646  140.0294  155.5966 O.3     1  UNL1       -0.4560
     21 C         140.2783  140.6527  163.1216 C.ar    1  UNL1        0.0622
     22 C         139.2494  139.9606  163.9655 C.ar    1  UNL1        0.0154
     23 C         139.1845  140.2294  165.4398 C.ar    1  UNL1        0.0013
     24 C         140.1485  141.1903  166.0702 C.ar    1  UNL1        0.0001
     25 C         141.1775  141.8825  165.2262 C.ar    1  UNL1        0.0013
     26 C         141.2423  141.6136  163.7519 C.ar    1  UNL1        0.0154
     27 C         140.0836  141.4592  167.5445 C.ar    1  UNL1        0.0000
     28 C         139.6207  140.3847  168.4831 C.ar    1  UNL1        0.0000
     29 C         139.5558  140.6535  169.9574 C.ar    1  UNL1        0.0000
     30 C         139.9539  141.9969  170.4930 C.ar    1  UNL1        0.0000
     31 C         140.4168  143.0714  169.5543 C.ar    1  UNL1        0.0000
     32 C         140.4817  142.8026  168.0801 C.ar    1  UNL1        0.0000
     33 C         142.3655  138.2500  161.3307 C.2     1  UNL1        0.0534
     34 O         143.1406  138.7270  161.7053 O.co2   1  UNL1       -0.5491
     35 O         141.5502  137.3421  162.2031 O.co2   1  UNL1       -0.5491
     36 C         142.9679  136.9441  156.3375 C.3     1  UNL1        0.1183
     37 C         142.7662  135.4579  156.3183 C.ar    1  UNL1        0.0712
     38 N         143.6147  134.5746  157.1842 N.ar    1  UNL1       -0.2471
     39 C         143.4130  133.0883  157.1650 C.ar    1  UNL1        0.0985
     40 C         142.3628  132.4854  156.2798 C.ar    1  UNL1        0.0203
     41 C         141.5142  133.3687  155.4139 C.ar    1  UNL1       -0.0015
     42 C         141.7159  134.8549  155.4331 C.ar    1  UNL1       -0.0069
     43 C         140.8674  135.7382  154.5672 C.3     1  UNL1        0.0323
@<TRIPOS>UNITY_ATOM_ATTR
34 1
charge -1
@<TRIPOS>BOND
     1    19    20    1
     2    20    13    1
     3    13    14   ar
     4    14    15   ar
     5    15     1    1
     6     1     2   am
     7     2     3    2
     8     2     4   am
     9     4    21    1
    10    21    22   ar
    11    22    23   ar
    12    23    24   ar
    13    24    27    1
    14    27    28   ar
    15    28    29   ar
    16    29    30   ar
    17    30    31   ar
    18    31    32   ar
    19    24    25   ar
    20    25    26   ar
    21     4     5   am
    22     5     6    2
    23     5     7    1
    24     7     8    1
    25     8     9    1
    26     9    10    1
    27    10    36    1
    28    36    37    1
    29    37    38   ar
    30    38    39   ar
    31    39    40   ar
    32    40    41   ar
    33    41    42   ar
    34    42    43    1
    35    10    11    1
    36    11    12    1
    37    12    33    1
    38    33    34   ar
    39    33    35   ar
    40    15    16   ar
    41    16    17   ar
    42    17    18   ar
    43    18    13   ar
    44     7     1    1
    45    42    37   ar
    46    26    21   ar
    47    12     7    1
    48    32    27   ar
@<TRIPOS>MOLECULE
*****
 43 48 0 0 0
SMALL
GASTEIGER

@<TRIPOS>ATOM
      1 N         139.8481  140.4409  159.2398 N.am    1  UNL1       -0.2219
      2 C         139.4582  141.0173  160.5687 C.2     1  UNL1        0.3220
      3 O         138.4274  142.0822  160.7995 O.2     1  UNL1       -0.2512
      4 N         140.2801  140.3417  161.6261 N.am    1  UNL1       -0.1907
      5 C         141.1780  139.3478  160.9508 C.2     1  UNL1        0.2532
      6 O         141.6388  138.9591  161.4723 O.2     1  UNL1       -0.2723
      7 C         140.9110  139.4091  159.4759 C.3     1  UNL1        0.1438
      8 C         140.5378  139.5814  158.0334 C.3     1  UNL1        0.0453
      9 C         141.2148  138.7558  156.9798 C.3     1  UNL1        0.0746
     10 N         142.2651  137.7580  157.3688 N.3     1  UNL1       -0.2672
     11 C         142.6384  137.5858  158.8113 C.3     1  UNL1        0.0801
     12 C         141.9613  138.4113  159.8649 C.3     1  UNL1        0.0780
     13 C         139.2945  142.3619  155.8115 C.ar    1  UNL1        0.2293
     14 C         139.8670  141.9745  157.1428 C.ar    1  UNL1        0.0924
     15 C         139.2757  140.8282  157.9085 C.ar    1  UNL1        0.1453
     16 N         138.1119  140.0693  157.3430 N.ar    1  UNL1       -0.2084
     17 C         137.5394  140.4566  156.0119 C.ar    1  UNL1        0.2027
     18 N         138.1308  141.6030  155.2460 N.ar    1  UNL1       -0.1892
     19 C         139.8383  144.8948  155.6157 C.3     1  UNL1        0.2542
     20 O         139.8857  143.5081  155.0457 O.3     1  UNL1       -0.4560
     21 C         140.2155  140.6125  163.0999 C.ar    1  UNL1        0.0622
     22 C         139.2335  139.8697  163.9566 C.ar    1  UNL1        0.0154
     23 C         139.1689  140.1405  165.4306 C.ar    1  UNL1        0.0013
     24 C         140.0863  141.1541  166.0479 C.ar    1  UNL1        0.0001
     25 C         141.0684  141.8970  165.1912 C.ar    1  UNL1        0.0013
     26 C         141.1329  141.6261  163.7172 C.ar    1  UNL1        0.0154
     27 C         140.0217  141.4249  167.5218 C.ar    1  UNL1        0.0000
     28 C         140.4719  142.7501  168.0613 C.ar    1  UNL1        0.0000
     29 C         140.4073  143.0209  169.5353 C.ar    1  UNL1        0.0000
     30 C         139.8924  141.9664  170.4696 C.ar    1  UNL1        0.0000
     31 C         139.4423  140.6412  169.9301 C.ar    1  UNL1        0.0000
     32 C         139.5069  140.3704  168.4563 C.ar    1  UNL1        0.0000
     33 C         142.3346  138.2391  161.3075 C.2     1  UNL1        0.0534
     34 O         143.1143  138.7147  161.6742 O.co2   1  UNL1       -0.5491
     35 O         141.5195  137.3419  162.1911 O.co2   1  UNL1       -0.5491
     36 C         142.9421  136.9325  156.3151 C.3     1  UNL1        0.1183
     37 C         142.7401  135.4466  156.2818 C.ar    1  UNL1        0.0712
     38 N         143.5930  134.5544  157.1341 N.ar    1  UNL1       -0.2471
     39 C         143.3909  133.0684  157.1007 C.ar    1  UNL1        0.0985
     40 C         142.3359  132.4746  156.2151 C.ar    1  UNL1        0.0203
     41 C         141.4830  133.3668  155.3627 C.ar    1  UNL1       -0.0015
     42 C         141.6850  134.8528  155.3961 C.ar    1  UNL1       -0.0069
     43 C         140.8321  135.7449  154.5437 C.3     1  UNL1        0.0323
@<TRIPOS>UNITY_ATOM_ATTR
34 1
charge -1
@<TRIPOS>BOND
     1    19    20    1
     2    20    13    1
     3    13    14   ar
     4    14    15   ar
     5    15     1    1
     6     1     2   am
     7     2     3    2
     8     2     4   am
     9     4    21    1
    10    21    22   ar
    11    22    23   ar
    12    23    24   ar
    13    24    27    1
    14    27    28   ar
    15    28    29   ar
    16    29    30   ar
    17    30    31   ar
    18    31    32   ar
    19    24    25   ar
    20    25    26   ar
    21     4     5   am
    22     5     6    2
    23     5     7    1
    24     7     8    1
    25     8     9    1
    26     9    10    1
    27    10    36    1
    28    36    37    1
    29    37    38   ar
    30    38    39   ar
    31    39    40   ar
    32    40    41   ar
    33    41    42   ar
    34    42    43    1
    35    10    11    1
    36    11    12    1
    37    12    33    1
    38    33    34   ar
    39    33    35   ar
    40    15    16   ar
    41    16    17   ar
    42    17    18   ar
    43    18    13   ar
    44     7     1    1
    45    42    37   ar
    46    26    21   ar
    47    12     7    1
    48    32    27   ar
@<TRIPOS>MOLECULE
*****
 43 48 0 0 0
SMALL
GASTEIGER

@<TRIPOS>ATOM
      1 N         142.4190  139.0695  159.4529 N.am    1  UNL1       -0.2219
      2 C         142.2021  138.7773  160.9082 C.2     1  UNL1        0.3220
      3 O         141.5475  137.5517  161.4734 O.2     1  UNL1       -0.2512
      4 N         142.7548  139.9259  161.6990 N.am    1  UNL1       -0.1907
      5 C         143.3132  140.9280  160.7325 C.2     1  UNL1        0.2532
      6 O         143.6213  141.5621  161.1045 O.2     1  UNL1       -0.2723
      7 C         143.1057  140.3987  159.3443 C.3     1  UNL1        0.1438
      8 C         142.8308  139.7442  158.0230 C.3     1  UNL1        0.0453
      9 C         143.2384  140.4246  156.7498 C.3     1  UNL1        0.0746
     10 N         143.9208  141.7595  156.7981 N.3     1  UNL1       -0.2672
     11 C         144.1957  142.4140  158.1194 C.3     1  UNL1        0.0801
     12 C         143.7881  141.7336  159.3926 C.3     1  UNL1        0.0780
     13 C         140.2191  137.3588  156.6274 C.ar    1  UNL1        0.2293
     14 C         140.6188  138.2409  157.7728 C.ar    1  UNL1        0.0924
     15 C         142.0193  138.1874  158.3075 C.ar    1  UNL1        0.1453
     16 N         143.0200  137.2517  157.6967 N.ar    1  UNL1       -0.2084
     17 C         142.6204  136.3696  156.5513 C.ar    1  UNL1        0.2027
     18 N         141.2199  136.4231  156.0166 N.ar    1  UNL1       -0.1892
     19 C         138.5773  137.3395  154.6140 C.3     1  UNL1        0.2542
     20 O         138.8188  137.4122  156.0926 O.3     1  UNL1       -0.4560
     21 C         142.7499  140.0506  163.1937 C.ar    1  UNL1        0.0622
     22 C         143.7236  139.2590  164.0155 C.ar    1  UNL1        0.0154
     23 C         143.7187  139.3837  165.5103 C.ar    1  UNL1        0.0013
     24 C         142.7402  140.3000  166.1833 C.ar    1  UNL1        0.0001
     25 C         141.7665  141.0917  165.3615 C.ar    1  UNL1        0.0013
     26 C         141.7714  140.9669  163.8667 C.ar    1  UNL1        0.0154
     27 C         142.7353  140.4247  167.6782 C.ar    1  UNL1        0.0000
     28 C         142.4843  139.2164  168.5307 C.ar    1  UNL1        0.0000
     29 C         142.4794  139.3411  170.0256 C.ar    1  UNL1        0.0000
     30 C         142.7256  140.6741  170.6677 C.ar    1  UNL1        0.0000
     31 C         142.9766  141.8825  169.8151 C.ar    1  UNL1        0.0000
     32 C         142.9815  141.7578  168.3204 C.ar    1  UNL1        0.0000
     33 C         144.0629  142.3881  160.7140 C.2     1  UNL1        0.0534
     34 O         143.4492  143.0753  161.0599 O.co2   1  UNL1       -0.5491
     35 O         145.2732  141.9951  161.5083 O.co2   1  UNL1       -0.5491
     36 C         144.3284  142.4399  155.5249 C.3     1  UNL1        0.1183
     37 C         145.7757  142.4969  155.1350 C.ar    1  UNL1        0.0712
     38 N         146.7565  141.5438  155.7512 N.ar    1  UNL1       -0.2471
     39 C         148.2039  141.6009  155.3613 C.ar    1  UNL1        0.0985
     40 C         148.6704  142.6110  154.3553 C.ar    1  UNL1        0.0203
     41 C         147.6895  143.5640  153.7391 C.ar    1  UNL1       -0.0015
     42 C         146.2422  143.5070  154.1290 C.ar    1  UNL1       -0.0069
     43 C         145.2614  144.4601  153.5128 C.3     1  UNL1        0.0323
@<TRIPOS>UNITY_ATOM_ATTR
34 1
charge -1
@<TRIPOS>BOND
     1    19    20    1
     2    20    13    1
     3    13    14   ar
     4    14    15   ar
     5    15     1    1
     6     1     2   am
     7     2     3    2
     8     2     4   am
     9     4    21    1
    10    21    22   ar
    11    22    23   ar
    12    23    24   ar
    13    24    27    1
    14    27    28   ar
    15    28    29   ar
    16    29    30   ar
    17    30    31   ar
    18    31    32   ar
    19    24    25   ar
    20    25    26   ar
    21     4     5   am
    22     5     6    2
    23     5     7    1
    24     7     8    1
    25     8     9    1
    26     9    10    1
    27    10    36    1
    28    36    37    1
    29    37    38   ar
    30    38    39   ar
    31    39    40   ar
    32    40    41   ar
    33    41    42   ar
    34    42    43    1
    35    10    11    1
    36    11    12    1
    37    12    33    1
    38    33    34   ar
    39    33    35   ar
    40    15    16   ar
    41    16    17   ar
    42    17    18   ar
    43    18    13   ar
    44     7     1    1
    45    42    37   ar
    46    26    21   ar
    47    12     7    1
    48    32    27   ar
@<TRIPOS>MOLECULE
*****
 43 48 0 0 0
SMALL
GASTEIGER

@<TRIPOS>ATOM
      1 N         141.3117  140.3188  159.8310 N.am    1  UNL1       -0.2219
      2 C         141.6460  140.2760  161.2928 C.2     1  UNL1        0.3220
      3 O         142.8378  139.6018  161.9053 O.2     1  UNL1       -0.2512
      4 N         140.5793  141.0259  162.0344 N.am    1  UNL1       -0.1907
      5 C         139.5858  141.5321  161.0310 C.2     1  UNL1        0.2532
      6 O         138.9944  141.9403  161.3761 O.2     1  UNL1       -0.2723
      7 C         140.0384  141.0951  159.6693 C.3     1  UNL1        0.1438
      8 C         140.6131  140.5900  158.3791 C.3     1  UNL1        0.0453
      9 C         139.9150  140.8786  157.0832 C.3     1  UNL1        0.0746
     10 N         138.6422  141.6722  157.0775 N.3     1  UNL1       -0.2672
     11 C         138.0675  142.1773  158.3677 C.3     1  UNL1        0.0801
     12 C         138.7656  141.8887  159.6635 C.3     1  UNL1        0.0780
     13 C         142.7102  137.6248  157.2744 C.ar    1  UNL1        0.2293
     14 C         141.9114  138.2488  158.3802 C.ar    1  UNL1        0.0924
     15 C         142.1105  139.6949  158.7253 C.ar    1  UNL1        0.1453
     16 N         143.1083  140.5170  157.9647 N.ar    1  UNL1       -0.2084
     17 C         143.9070  139.8932  156.8590 C.ar    1  UNL1        0.2027
     18 N         143.7080  138.4470  156.5138 N.ar    1  UNL1       -0.1892
     19 C         143.6211  135.4019  156.2853 C.3     1  UNL1        0.2542
     20 O         142.5112  136.1787  156.9292 O.3     1  UNL1       -0.4560
     21 C         140.5171  141.2332  163.5186 C.ar    1  UNL1        0.0622
     22 C         139.6655  140.3352  164.3662 C.ar    1  UNL1        0.0154
     23 C         139.6033  140.5425  165.8505 C.ar    1  UNL1        0.0013
     24 C         140.3926  141.6477  166.4872 C.ar    1  UNL1        0.0001
     25 C         141.2442  142.5458  165.6396 C.ar    1  UNL1        0.0013
     26 C         141.3064  142.3384  164.1553 C.ar    1  UNL1        0.0154
     27 C         140.3304  141.8550  167.9715 C.ar    1  UNL1        0.0000
     28 C         140.1417  140.6807  168.8856 C.ar    1  UNL1        0.0000
     29 C         140.0794  140.8880  170.3699 C.ar    1  UNL1        0.0000
     30 C         140.2060  142.2697  170.9401 C.ar    1  UNL1        0.0000
     31 C         140.3947  143.4439  170.0261 C.ar    1  UNL1        0.0000
     32 C         140.4569  143.2367  168.5418 C.ar    1  UNL1        0.0000
     33 C         138.1908  142.3938  160.9538 C.2     1  UNL1        0.0534
     34 O         138.3396  143.3276  161.2266 O.co2   1  UNL1       -0.5491
     35 O         137.3895  141.4755  161.8282 O.co2   1  UNL1       -0.5491
     36 C         137.9441  141.9608  155.7815 C.3     1  UNL1        0.1183
     37 C         136.5325  141.4993  155.5710 C.ar    1  UNL1        0.0712
     38 N         135.8728  140.6157  156.5879 N.ar    1  UNL1       -0.2471
     39 C         134.4612  140.1541  156.3774 C.ar    1  UNL1        0.0985
     40 C         133.7093  140.5762  155.1500 C.ar    1  UNL1        0.0203
     41 C         134.3690  141.4598  154.1331 C.ar    1  UNL1       -0.0015
     42 C         135.7806  141.9213  154.3436 C.ar    1  UNL1       -0.0069
     43 C         136.4403  142.8049  153.3267 C.3     1  UNL1        0.0323
@<TRIPOS>UNITY_ATOM_ATTR
34 1
charge -1
@<TRIPOS>BOND
     1    19    20    1
     2    20    13    1
     3    13    14   ar
     4    14    15   ar
     5    15     1    1
     6     1     2   am
     7     2     3    2
     8     2     4   am
     9     4    21    1
    10    21    22   ar
    11    22    23   ar
    12    23    24   ar
    13    24    27    1
    14    27    28   ar
    15    28    29   ar
    16    29    30   ar
    17    30    31   ar
    18    31    32   ar
    19    24    25   ar
    20    25    26   ar
    21     4     5   am
    22     5     6    2
    23     5     7    1
    24     7     8    1
    25     8     9    1
    26     9    10    1
    27    10    36    1
    28    36    37    1
    29    37    38   ar
    30    38    39   ar
    31    39    40   ar
    32    40    41   ar
    33    41    42   ar
    34    42    43    1
    35    10    11    1
    36    11    12    1
    37    12    33    1
    38    33    34   ar
    39    33    35   ar
    40    15    16   ar
    41    16    17   ar
    42    17    18   ar
    43    18    13   ar
    44     7     1    1
    45    42    37   ar
    46    26    21   ar
    47    12     7    1
    48    32    27   ar
@<TRIPOS>MOLECULE
*****
 43 48 0 0 0
SMALL
GASTEIGER

@<TRIPOS>ATOM
      1 N         141.1650  140.1371  159.9494 N.am    1  UNL1       -0.2219
      2 C         141.5031  140.0743  161.4095 C.2     1  UNL1        0.3220
      3 O         142.6358  139.3033  162.0198 O.2     1  UNL1       -0.2512
      4 N         140.5096  140.9180  162.1521 N.am    1  UNL1       -0.1907
      5 C         139.5575  141.5021  161.1509 C.2     1  UNL1        0.2532
      6 O         139.0057  141.9620  161.4966 O.2     1  UNL1       -0.2723
      7 C         139.9625  141.0195  159.7896 C.3     1  UNL1        0.1438
      8 C         140.4837  140.4590  158.4996 C.3     1  UNL1        0.0453
      9 C         139.8054  140.7991  157.2057 C.3     1  UNL1        0.0746
     10 N         138.6059  141.6998  157.2018 N.3     1  UNL1       -0.2672
     11 C         138.0847  142.2603  158.4918 C.3     1  UNL1        0.0801
     12 C         138.7630  141.9202  159.7857 C.3     1  UNL1        0.0780
     13 C         143.8139  139.4042  157.0866 C.ar    1  UNL1        0.2293
     14 C         143.0787  140.1014  158.1927 C.ar    1  UNL1        0.0924
     15 C         141.9002  139.4399  158.8434 C.ar    1  UNL1        0.1453
     16 N         141.4569  138.0812  158.3880 N.ar    1  UNL1       -0.2084
     17 C         142.1920  137.3839  157.2820 C.ar    1  UNL1        0.2027
     18 N         143.3706  138.0455  156.6313 N.ar    1  UNL1       -0.1892
     19 C         145.4893  141.3851  156.9481 C.3     1  UNL1        0.2542
     20 O         144.9925  140.0656  156.4359 O.3     1  UNL1       -0.4560
     21 C         140.4744  141.1387  163.6352 C.ar    1  UNL1        0.0622
     22 C         139.7589  140.1631  164.5219 C.ar    1  UNL1        0.0154
     23 C         139.7237  140.3838  166.0052 C.ar    1  UNL1        0.0013
     24 C         140.4041  141.5801  166.6018 C.ar    1  UNL1        0.0001
     25 C         141.1197  142.5557  165.7151 C.ar    1  UNL1        0.0013
     26 C         141.1549  142.3349  164.2319 C.ar    1  UNL1        0.0154
     27 C         140.3689  141.8008  168.0851 C.ar    1  UNL1        0.0000
     28 C         140.2568  140.6294  169.0152 C.ar    1  UNL1        0.0000
     29 C         140.2216  140.8501  170.4985 C.ar    1  UNL1        0.0000
     30 C         140.2986  142.2423  171.0515 C.ar    1  UNL1        0.0000
     31 C         140.4108  143.4137  170.1214 C.ar    1  UNL1        0.0000
     32 C         140.4459  143.1930  168.6382 C.ar    1  UNL1        0.0000
     33 C         138.2418  142.4807  161.0758 C.2     1  UNL1        0.0534
     34 O         138.4668  143.4021  161.3385 O.co2   1  UNL1       -0.5491
     35 O         137.3777  141.6369  161.9654 O.co2   1  UNL1       -0.5491
     36 C         137.9276  142.0399  155.9079 C.3     1  UNL1        0.1183
     37 C         136.5369  141.5468  155.6378 C.ar    1  UNL1        0.0712
     38 N         135.8587  140.6396  156.6211 N.ar    1  UNL1       -0.2471
     39 C         134.4680  140.1465  156.3510 C.ar    1  UNL1        0.0985
     40 C         133.7556  140.5606  155.0976 C.ar    1  UNL1        0.0203
     41 C         134.4339  141.4678  154.1143 C.ar    1  UNL1       -0.0015
     42 C         135.8245  141.9609  154.3843 C.ar    1  UNL1       -0.0069
     43 C         136.5028  142.8681  153.4010 C.3     1  UNL1        0.0323
@<TRIPOS>UNITY_ATOM_ATTR
34 1
charge -1
@<TRIPOS>BOND
     1    19    20    1
     2    20    13    1
     3    13    14   ar
     4    14    15   ar
     5    15     1    1
     6     1     2   am
     7     2     3    2
     8     2     4   am
     9     4    21    1
    10    21    22   ar
    11    22    23   ar
    12    23    24   ar
    13    24    27    1
    14    27    28   ar
    15    28    29   ar
    16    29    30   ar
    17    30    31   ar
    18    31    32   ar
    19    24    25   ar
    20    25    26   ar
    21     4     5   am
    22     5     6    2
    23     5     7    1
    24     7     8    1
    25     8     9    1
    26     9    10    1
    27    10    36    1
    28    36    37    1
    29    37    38   ar
    30    38    39   ar
    31    39    40   ar
    32    40    41   ar
    33    41    42   ar
    34    42    43    1
    35    10    11    1
    36    11    12    1
    37    12    33    1
    38    33    34   ar
    39    33    35   ar
    40    15    16   ar
    41    16    17   ar
    42    17    18   ar
    43    18    13   ar
    44     7     1    1
    45    42    37   ar
    46    26    21   ar
    47    12     7    1
    48    32    27   ar
@<TRIPOS>MOLECULE
*****
 43 48 0 0 0
SMALL
GASTEIGER

@<TRIPOS>ATOM
      1 N         143.5131  142.2911  160.0775 N.am    1  UNL1       -0.2219
      2 C         143.7439  141.7224  161.4463 C.2     1  UNL1        0.3220
      3 O         144.7062  140.6259  161.7947 O.2     1  UNL1       -0.2512
      4 N         142.8433  142.4430  162.4054 N.am    1  UNL1       -0.1907
      5 C         142.0560  143.4569  161.6295 C.2     1  UNL1        0.2532
      6 O         141.5587  143.8697  162.0961 O.2     1  UNL1       -0.2723
      7 C         142.4699  143.3630  160.1907 C.3     1  UNL1        0.1438
      8 C         142.9821  143.1550  158.7963 C.3     1  UNL1        0.0453
      9 C         142.4469  143.9869  157.6688 C.3     1  UNL1        0.0746
     10 N         141.3994  145.0269  157.9357 N.3     1  UNL1       -0.2672
     11 C         140.8871  145.2349  159.3301 C.3     1  UNL1        0.0801
     12 C         141.4224  144.4030  160.4576 C.3     1  UNL1        0.0780
     13 C         146.1554  142.1222  157.1212 C.ar    1  UNL1        0.2293
     14 C         145.4643  142.5504  158.3818 C.ar    1  UNL1        0.0924
     15 C         144.2041  141.8629  158.8169 C.ar    1  UNL1        0.1453
     16 N         143.6350  140.7473  157.9914 N.ar    1  UNL1       -0.2084
     17 C         144.3259  140.3191  156.7308 C.ar    1  UNL1        0.2027
     18 N         145.5862  141.0066  156.2957 N.ar    1  UNL1       -0.1892
     19 C         148.3224  142.1520  155.6885 C.3     1  UNL1        0.2542
     20 O         147.4155  142.8096  156.6861 O.3     1  UNL1       -0.4560
     21 C         142.7471  142.1935  163.8813 C.ar    1  UNL1        0.0622
     22 C         143.6994  142.8724  164.8205 C.ar    1  UNL1        0.0154
     23 C         143.6031  142.6228  166.2964 C.ar    1  UNL1        0.0013
     24 C         142.5545  141.6943  166.8333 C.ar    1  UNL1        0.0001
     25 C         141.6020  141.0153  165.8941 C.ar    1  UNL1        0.0013
     26 C         141.6984  141.2650  164.4181 C.ar    1  UNL1        0.0154
     27 C         142.4582  141.4448  168.3092 C.ar    1  UNL1        0.0000
     28 C         142.6275  140.0550  168.8475 C.ar    1  UNL1        0.0000
     29 C         142.5313  139.8054  170.3235 C.ar    1  UNL1        0.0000
     30 C         142.2656  140.9457  171.2611 C.ar    1  UNL1        0.0000
     31 C         142.0962  142.3355  170.7228 C.ar    1  UNL1        0.0000
     32 C         142.1925  142.5851  169.2469 C.ar    1  UNL1        0.0000
     33 C         140.9102  144.6109  161.8520 C.2     1  UNL1        0.0534
     34 O         141.3042  145.3100  162.4218 O.co2   1  UNL1       -0.5491
     35 O         139.7974  143.7535  162.3779 O.co2   1  UNL1       -0.5491
     36 C         140.8641  145.8589  156.8081 C.3     1  UNL1        0.1183
     37 C         139.6516  145.4047  156.0508 C.ar    1  UNL1        0.0712
     38 N         139.3126  143.9450  155.9835 N.ar    1  UNL1       -0.2471
     39 C         138.1000  143.4909  155.2262 C.ar    1  UNL1        0.0985
     40 C         137.2266  144.4963  154.5362 C.ar    1  UNL1        0.0203
     41 C         137.5656  145.9559  154.6034 C.ar    1  UNL1       -0.0015
     42 C         138.7781  146.4101  155.3607 C.ar    1  UNL1       -0.0069
     43 C         139.1172  147.8697  155.4280 C.3     1  UNL1        0.0323
@<TRIPOS>UNITY_ATOM_ATTR
34 1
charge -1
@<TRIPOS>BOND
     1    19    20    1
     2    20    13    1
     3    13    14   ar
     4    14    15   ar
     5    15     1    1
     6     1     2   am
     7     2     3    2
     8     2     4   am
     9     4    21    1
    10    21    22   ar
    11    22    23   ar
    12    23    24   ar
    13    24    27    1
    14    27    28   ar
    15    28    29   ar
    16    29    30   ar
    17    30    31   ar
    18    31    32   ar
    19    24    25   ar
    20    25    26   ar
    21     4     5   am
    22     5     6    2
    23     5     7    1
    24     7     8    1
    25     8     9    1
    26     9    10    1
    27    10    36    1
    28    36    37    1
    29    37    38   ar
    30    38    39   ar
    31    39    40   ar
    32    40    41   ar
    33    41    42   ar
    34    42    43    1
    35    10    11    1
    36    11    12    1
    37    12    33    1
    38    33    34   ar
    39    33    35   ar
    40    15    16   ar
    41    16    17   ar
    42    17    18   ar
    43    18    13   ar
    44     7     1    1
    45    42    37   ar
    46    26    21   ar
    47    12     7    1
    48    32    27   ar
