@<TRIPOS>MOLECULE
*****
 33 37 0 0 0
SMALL
GASTEIGER

@<TRIPOS>ATOM
      1 N         138.6499  143.9348  162.8934 N.3     1  UNL1       -0.2695
      2 C         138.7287  143.5819  164.3492 C.3     1  UNL1        0.0939
      3 C         138.6014  142.1514  164.7821 C.3     1  UNL1        0.1107
      4 N         138.3952  141.0737  163.7593 N.am    1  UNL1       -0.2764
      5 C         138.2678  139.6432  164.1922 C.2     1  UNL1        0.2302
      6 O         138.0617  138.5656  163.1694 O.2     1  UNL1       -0.2745
      7 C         138.3164  141.4267  162.3035 C.3     1  UNL1        0.1107
      8 C         138.4437  142.8572  161.8706 C.3     1  UNL1        0.0939
      9 C         138.7773  145.3653  162.4605 C.3     1  UNL1        0.0769
     10 C         140.1322  145.9492  162.1898 C.3     1  UNL1        0.0433
     11 C         141.2521  144.4335  159.8556 C.3     1  UNL1        0.0305
     12 C         141.9205  144.3479  161.1957 C.ar    1  UNL1       -0.0260
     13 C         141.3606  145.1058  162.3629 C.ar    1  UNL1       -0.0249
     14 C         142.0289  145.0202  163.7030 C.ar    1  UNL1       -0.0043
     15 C         143.2572  144.1769  163.8760 C.ar    1  UNL1        0.0059
     16 C         143.8172  143.4190  162.7090 C.ar    1  UNL1        0.0748
     17 C         143.1488  143.5046  161.3688 C.ar    1  UNL1        0.0233
     18 C         143.9242  142.6518  160.4088 C.3     1  UNL1        0.2352
     19 O         145.0718  142.0392  161.1557 O.3     1  UNL1       -0.4404
     20 C         145.0056  142.5134  162.5773 C.2     1  UNL1        0.3413
     21 O         145.9603  142.1463  163.6744 O.2     1  UNL1       -0.2449
     22 C         138.3467  139.2904  165.6480 C.3     1  UNL1        0.1131
     23 C         139.6335  139.4761  166.3961 C.ar    1  UNL1        0.0076
     24 C         140.9189  138.9657  165.8154 C.ar    1  UNL1        0.0952
     25 N         142.2058  139.1514  166.5634 N.ar    1  UNL1       -0.2411
     26 C         142.2072  139.8475  167.8921 C.ar    1  UNL1        0.1180
     27 C         140.9218  140.3580  168.4727 C.ar    1  UNL1        0.1051
     28 C         139.6349  140.1723  167.7247 C.ar    1  UNL1        0.0186
     29 N         140.9232  141.0541  169.8013 N.ar    1  UNL1       -0.1871
     30 C         142.1048  141.2143  170.7116 C.ar    1  UNL1        0.2259
     31 N         141.6552  141.9715  171.9259 N.ar    1  UNL1       -0.1045
     32 N         140.1959  142.2793  171.7662 N.ar    1  UNL1       -0.0222
     33 N         139.7435  141.7124  170.4532 N.ar    1  UNL1       -0.0384
@<TRIPOS>BOND
     1    11    12    1
     2    12    13   ar
     3    13    10    1
     4    10     9    1
     5     9     1    1
     6     1     2    1
     7     2     3    1
     8     3     4    1
     9     4     5   am
    10     5     6    2
    11     5    22    1
    12    22    23    1
    13    23    24   ar
    14    24    25   ar
    15    25    26   ar
    16    26    27   ar
    17    27    29    1
    18    29    30   ar
    19    30    31   ar
    20    31    32   ar
    21    32    33   ar
    22    27    28   ar
    23     4     7    1
    24     7     8    1
    25    13    14   ar
    26    14    15   ar
    27    15    16   ar
    28    16    17   ar
    29    17    18    1
    30    18    19    1
    31    19    20    1
    32    20    21    2
    33    17    12   ar
    34     8     1    1
    35    20    16    1
    36    28    23   ar
    37    33    29   ar
@<TRIPOS>MOLECULE
*****
 33 37 0 0 0
SMALL
GASTEIGER

@<TRIPOS>ATOM
      1 N         143.8462  142.1588  159.7565 N.3     1  UNL1       -0.2695
      2 C         142.5167  142.8502  159.8237 C.3     1  UNL1        0.0939
      3 C         142.1816  143.7184  161.0001 C.3     1  UNL1        0.1107
      4 N         143.1759  143.8953  162.1093 N.am    1  UNL1       -0.2764
      5 C         142.8406  144.7635  163.2856 C.2     1  UNL1        0.2302
      6 O         143.8349  144.9403  164.3947 O.2     1  UNL1       -0.2745
      7 C         144.5053  143.2038  162.0419 C.3     1  UNL1        0.1107
      8 C         144.8405  142.3357  160.8656 C.3     1  UNL1        0.0939
      9 C         144.1814  141.2906  158.5801 C.3     1  UNL1        0.0769
     10 C         143.6349  139.8961  158.4972 C.3     1  UNL1        0.0433
     11 C         140.6514  139.6417  158.6819 C.3     1  UNL1        0.0305
     12 C         141.5177  139.1354  159.7969 C.ar    1  UNL1       -0.0260
     13 C         143.0095  139.2627  159.7046 C.ar    1  UNL1       -0.0249
     14 C         143.8758  138.7565  160.8195 C.ar    1  UNL1       -0.0043
     15 C         143.2505  138.1231  162.0269 C.ar    1  UNL1        0.0059
     16 C         141.7588  137.9958  162.1192 C.ar    1  UNL1        0.0748
     17 C         140.8924  138.5020  161.0043 C.ar    1  UNL1        0.0233
     18 C         139.4622  138.2407  161.3733 C.3     1  UNL1        0.2352
     19 O         139.4446  137.5731  162.7164 O.3     1  UNL1       -0.4404
     20 C         140.8640  137.4217  163.1774 C.2     1  UNL1        0.3413
     21 O         141.3102  136.8046  164.4697 O.2     1  UNL1       -0.2449
     22 C         141.5112  145.4549  163.3528 C.3     1  UNL1        0.1131
     23 C         140.2502  144.6480  163.4474 C.ar    1  UNL1        0.0076
     24 C         139.0226  145.0852  162.7046 C.ar    1  UNL1        0.0952
     25 N         137.7616  144.2784  162.7992 N.ar    1  UNL1       -0.2411
     26 C         137.7282  143.0343  163.6365 C.ar    1  UNL1        0.1180
     27 C         138.9559  142.5971  164.3793 C.ar    1  UNL1        0.1051
     28 C         140.2169  143.4039  164.2848 C.ar    1  UNL1        0.0186
     29 N         138.9226  141.3531  165.2167 N.ar    1  UNL1       -0.1871
     30 C         138.1860  140.0883  164.8879 C.ar    1  UNL1        0.2259
     31 N         138.4281  139.1089  165.9978 N.ar    1  UNL1       -0.1045
     32 N         139.3143  139.7682  167.0127 N.ar    1  UNL1       -0.0222
     33 N         139.6199  141.1551  166.5299 N.ar    1  UNL1       -0.0384
@<TRIPOS>BOND
     1    11    12    1
     2    12    13   ar
     3    13    10    1
     4    10     9    1
     5     9     1    1
     6     1     2    1
     7     2     3    1
     8     3     4    1
     9     4     5   am
    10     5     6    2
    11     5    22    1
    12    22    23    1
    13    23    24   ar
    14    24    25   ar
    15    25    26   ar
    16    26    27   ar
    17    27    29    1
    18    29    30   ar
    19    30    31   ar
    20    31    32   ar
    21    32    33   ar
    22    27    28   ar
    23     4     7    1
    24     7     8    1
    25    13    14   ar
    26    14    15   ar
    27    15    16   ar
    28    16    17   ar
    29    17    18    1
    30    18    19    1
    31    19    20    1
    32    20    21    2
    33    17    12   ar
    34     8     1    1
    35    20    16    1
    36    28    23   ar
    37    33    29   ar
@<TRIPOS>MOLECULE
*****
 33 37 0 0 0
SMALL
GASTEIGER

@<TRIPOS>ATOM
      1 N         138.5442  140.3658  165.1321 N.3     1  UNL1       -0.2695
      2 C         139.7827  141.1569  165.4328 C.3     1  UNL1        0.0939
      3 C         139.9896  142.4980  164.7934 C.3     1  UNL1        0.1107
      4 N         138.9581  143.0479  163.8534 N.am    1  UNL1       -0.2764
      5 C         139.1650  144.3890  163.2141 C.2     1  UNL1        0.2302
      6 O         138.1336  144.9389  162.2741 O.2     1  UNL1       -0.2745
      7 C         137.7196  142.2567  163.5528 C.3     1  UNL1        0.1107
      8 C         137.5127  140.9157  164.1921 C.3     1  UNL1        0.0939
      9 C         138.3373  139.0247  165.7715 C.3     1  UNL1        0.0769
     10 C         138.9292  137.7964  165.1462 C.3     1  UNL1        0.0433
     11 C         141.9252  137.9501  165.1189 C.3     1  UNL1        0.0305
     12 C         141.1611  137.9749  163.8283 C.ar    1  UNL1       -0.0260
     13 C         139.6631  137.8981  163.8419 C.ar    1  UNL1       -0.0249
     14 C         138.8991  137.9229  162.5514 C.ar    1  UNL1       -0.0043
     15 C         139.6329  138.0245  161.2472 C.ar    1  UNL1        0.0059
     16 C         141.1309  138.1013  161.2335 C.ar    1  UNL1        0.0748
     17 C         141.8950  138.0765  162.5240 C.ar    1  UNL1        0.0233
     18 C         143.3566  138.1668  162.1992 C.3     1  UNL1        0.2352
     19 O         143.4958  138.2475  160.7079 O.3     1  UNL1       -0.4404
     20 C         142.1203  138.2070  160.1110 C.2     1  UNL1        0.3413
     21 O         141.7918  138.2624  158.6485 O.2     1  UNL1       -0.2449
     22 C         140.4035  145.1801  163.5147 C.3     1  UNL1        0.1131
     23 C         141.7455  144.6629  163.0888 C.ar    1  UNL1        0.0076
     24 C         142.9060  144.7176  164.0377 C.ar    1  UNL1        0.0952
     25 N         144.2481  144.2005  163.6118 N.ar    1  UNL1       -0.2411
     26 C         144.4298  143.6286  162.2370 C.ar    1  UNL1        0.1180
     27 C         143.2693  143.5739  161.2882 C.ar    1  UNL1        0.1051
     28 C         141.9272  144.0911  161.7140 C.ar    1  UNL1        0.0186
     29 N         143.4509  143.0021  159.9134 N.ar    1  UNL1       -0.1871
     30 C         143.8433  141.5908  159.5902 C.ar    1  UNL1        0.2259
     31 N         143.9070  141.4576  158.0975 N.ar    1  UNL1       -0.1045
     32 N         143.5539  142.7865  157.4981 N.ar    1  UNL1       -0.0222
     33 N         143.2721  143.7410  158.6203 N.ar    1  UNL1       -0.0384
@<TRIPOS>BOND
     1    11    12    1
     2    12    13   ar
     3    13    10    1
     4    10     9    1
     5     9     1    1
     6     1     2    1
     7     2     3    1
     8     3     4    1
     9     4     5   am
    10     5     6    2
    11     5    22    1
    12    22    23    1
    13    23    24   ar
    14    24    25   ar
    15    25    26   ar
    16    26    27   ar
    17    27    29    1
    18    29    30   ar
    19    30    31   ar
    20    31    32   ar
    21    32    33   ar
    22    27    28   ar
    23     4     7    1
    24     7     8    1
    25    13    14   ar
    26    14    15   ar
    27    15    16   ar
    28    16    17   ar
    29    17    18    1
    30    18    19    1
    31    19    20    1
    32    20    21    2
    33    17    12   ar
    34     8     1    1
    35    20    16    1
    36    28    23   ar
    37    33    29   ar
@<TRIPOS>MOLECULE
*****
 33 37 0 0 0
SMALL
GASTEIGER

@<TRIPOS>ATOM
      1 N         139.5006  138.0097  163.6831 N.3     1  UNL1       -0.2695
      2 C         140.9851  138.1942  163.5719 C.3     1  UNL1        0.0939
      3 C         141.6274  138.3093  162.2213 C.3     1  UNL1        0.1107
      4 N         140.7853  138.2399  160.9819 N.am    1  UNL1       -0.2764
      5 C         141.4277  138.3550  159.6313 C.2     1  UNL1        0.2302
      6 O         140.5856  138.2856  158.3919 O.2     1  UNL1       -0.2745
      7 C         139.3008  138.0554  161.0932 C.3     1  UNL1        0.1107
      8 C         138.6586  137.9403  162.4438 C.3     1  UNL1        0.0939
      9 C         138.8583  137.8946  165.0337 C.3     1  UNL1        0.0769
     10 C         138.2882  139.1120  165.6993 C.3     1  UNL1        0.0433
     11 C         140.5136  140.9506  166.5166 C.3     1  UNL1        0.0305
     12 C         139.5399  141.3760  165.4578 C.ar    1  UNL1       -0.0260
     13 C         138.4272  140.4567  165.0491 C.ar    1  UNL1       -0.0249
     14 C         137.4536  140.8821  163.9904 C.ar    1  UNL1       -0.0043
     15 C         137.5925  142.2267  163.3403 C.ar    1  UNL1        0.0059
     16 C         138.7051  143.1459  163.7489 C.ar    1  UNL1        0.0748
     17 C         139.6788  142.7206  164.8077 C.ar    1  UNL1        0.0233
     18 C         140.6670  143.8322  165.0023 C.3     1  UNL1        0.2352
     19 O         140.3040  144.9446  164.0637 O.3     1  UNL1       -0.4404
     20 C         139.0915  144.5204  163.2891 C.2     1  UNL1        0.3413
     21 O         138.3888  145.3289  162.2391 O.2     1  UNL1       -0.2449
     22 C         142.9122  138.5395  159.5201 C.3     1  UNL1        0.1131
     23 C         143.4923  139.9204  159.4405 C.ar    1  UNL1        0.0076
     24 C         144.0948  140.4079  158.1562 C.ar    1  UNL1        0.0952
     25 N         144.6751  141.7889  158.0765 N.ar    1  UNL1       -0.2411
     26 C         144.6528  142.6824  159.2811 C.ar    1  UNL1        0.1180
     27 C         144.0502  142.1949  160.5654 C.ar    1  UNL1        0.1051
     28 C         143.4700  140.8140  160.6451 C.ar    1  UNL1        0.0186
     29 N         144.0279  143.0884  161.7700 N.ar    1  UNL1       -0.1871
     30 C         144.6310  142.7794  163.1084 C.ar    1  UNL1        0.2259
     31 N         144.3744  143.9478  164.0133 N.ar    1  UNL1       -0.1045
     32 N         143.6129  144.9790  163.2344 N.ar    1  UNL1       -0.0222
     33 N         143.3987  144.4478  161.8480 N.ar    1  UNL1       -0.0384
@<TRIPOS>BOND
     1    11    12    1
     2    12    13   ar
     3    13    10    1
     4    10     9    1
     5     9     1    1
     6     1     2    1
     7     2     3    1
     8     3     4    1
     9     4     5   am
    10     5     6    2
    11     5    22    1
    12    22    23    1
    13    23    24   ar
    14    24    25   ar
    15    25    26   ar
    16    26    27   ar
    17    27    29    1
    18    29    30   ar
    19    30    31   ar
    20    31    32   ar
    21    32    33   ar
    22    27    28   ar
    23     4     7    1
    24     7     8    1
    25    13    14   ar
    26    14    15   ar
    27    15    16   ar
    28    16    17   ar
    29    17    18    1
    30    18    19    1
    31    19    20    1
    32    20    21    2
    33    17    12   ar
    34     8     1    1
    35    20    16    1
    36    28    23   ar
    37    33    29   ar
@<TRIPOS>MOLECULE
*****
 33 37 0 0 0
SMALL
GASTEIGER

@<TRIPOS>ATOM
      1 N         143.7495  139.2392  164.3603 N.3     1  UNL1       -0.2695
      2 C         142.5773  138.4934  163.7949 C.3     1  UNL1        0.0939
      3 C         142.3804  138.4203  162.3097 C.3     1  UNL1        0.1107
      4 N         143.3557  139.0931  161.3898 N.am    1  UNL1       -0.2764
      5 C         143.1587  139.0200  159.9046 C.2     1  UNL1        0.2302
      6 O         144.1340  139.6928  158.9847 O.2     1  UNL1       -0.2745
      7 C         144.5279  139.8390  161.9552 C.3     1  UNL1        0.1107
      8 C         144.7248  139.9120  163.4404 C.3     1  UNL1        0.0939
      9 C         143.9464  139.3123  165.8455 C.3     1  UNL1        0.0769
     10 C         142.8118  138.9830  166.7696 C.3     1  UNL1        0.0433
     11 C         142.6349  138.6080  169.7409 C.3     1  UNL1        0.0305
     12 C         142.1182  139.8680  169.1119 C.ar    1  UNL1       -0.0260
     13 C         142.2066  140.0555  167.6262 C.ar    1  UNL1       -0.0249
     14 C         141.6900  141.3153  166.9972 C.ar    1  UNL1       -0.0043
     15 C         141.0849  142.3878  167.8538 C.ar    1  UNL1        0.0059
     16 C         140.9964  142.2003  169.3394 C.ar    1  UNL1        0.0748
     17 C         141.5131  140.9404  169.9684 C.ar    1  UNL1        0.0233
     18 C         141.2920  141.0370  171.4489 C.3     1  UNL1        0.2352
     19 O         140.6386  142.3566  171.7348 O.3     1  UNL1       -0.4404
     20 C         140.4560  143.0756  170.4311 C.2     1  UNL1        0.3413
     21 O         139.8409  144.4317  170.2507 O.2     1  UNL1       -0.2449
     22 C         141.9865  138.2741  159.3392 C.3     1  UNL1        0.1131
     23 C         140.6858  138.9848  159.1090 C.ar    1  UNL1        0.0076
     24 C         139.9130  138.7440  157.8461 C.ar    1  UNL1        0.0952
     25 N         138.6122  139.4546  157.6158 N.ar    1  UNL1       -0.2411
     26 C         138.0842  140.4060  158.6483 C.ar    1  UNL1        0.1180
     27 C         138.8571  140.6467  159.9111 C.ar    1  UNL1        0.1051
     28 C         140.1578  139.9361  160.1415 C.ar    1  UNL1        0.0186
     29 N         138.3291  141.5981  160.9437 N.ar    1  UNL1       -0.1871
     30 C         138.6623  143.0568  161.0510 C.ar    1  UNL1        0.2259
     31 N         137.9144  143.6181  162.2238 N.ar    1  UNL1       -0.1045
     32 N         137.1190  142.5064  162.8414 N.ar    1  UNL1       -0.0222
     33 N         137.3753  141.2581  162.0502 N.ar    1  UNL1       -0.0384
@<TRIPOS>BOND
     1    11    12    1
     2    12    13   ar
     3    13    10    1
     4    10     9    1
     5     9     1    1
     6     1     2    1
     7     2     3    1
     8     3     4    1
     9     4     5   am
    10     5     6    2
    11     5    22    1
    12    22    23    1
    13    23    24   ar
    14    24    25   ar
    15    25    26   ar
    16    26    27   ar
    17    27    29    1
    18    29    30   ar
    19    30    31   ar
    20    31    32   ar
    21    32    33   ar
    22    27    28   ar
    23     4     7    1
    24     7     8    1
    25    13    14   ar
    26    14    15   ar
    27    15    16   ar
    28    16    17   ar
    29    17    18    1
    30    18    19    1
    31    19    20    1
    32    20    21    2
    33    17    12   ar
    34     8     1    1
    35    20    16    1
    36    28    23   ar
    37    33    29   ar
@<TRIPOS>MOLECULE
*****
 33 37 0 0 0
SMALL
GASTEIGER

@<TRIPOS>ATOM
      1 N         138.8501  139.7829  162.7275 N.3     1  UNL1       -0.2695
      2 C         140.1503  140.4493  162.3877 C.3     1  UNL1        0.0939
      3 C         140.2140  141.9413  162.2466 C.3     1  UNL1        0.1107
      4 N         138.9775  142.7670  162.4452 N.am    1  UNL1       -0.2764
      5 C         139.0413  144.2589  162.3040 C.2     1  UNL1        0.2302
      6 O         137.8049  145.0846  162.5026 O.2     1  UNL1       -0.2745
      7 C         137.6773  142.1006  162.7850 C.3     1  UNL1        0.1107
      8 C         137.6136  140.6086  162.9261 C.3     1  UNL1        0.0939
      9 C         138.7863  138.2910  162.8687 C.3     1  UNL1        0.0769
     10 C         139.3365  137.6297  164.0975 C.3     1  UNL1        0.0433
     11 C         141.8871  138.8683  165.0776 C.3     1  UNL1        0.0305
     12 C         140.6332  138.9894  165.8920 C.ar    1  UNL1       -0.0260
     13 C         139.3579  138.3701  165.4019 C.ar    1  UNL1       -0.0249
     14 C         138.1040  138.4911  166.2162 C.ar    1  UNL1       -0.0043
     15 C         138.1254  139.2314  167.5206 C.ar    1  UNL1        0.0059
     16 C         139.4006  139.8507  168.0107 C.ar    1  UNL1        0.0748
     17 C         140.6545  139.7297  167.1964 C.ar    1  UNL1        0.0233
     18 C         141.7540  140.4389  167.9300 C.3     1  UNL1        0.2352
     19 O         141.1796  140.9982  169.1978 O.3     1  UNL1       -0.4404
     20 C         139.7251  140.6347  169.2476 C.2     1  UNL1        0.3413
     21 O         138.7639  140.9924  170.3422 O.2     1  UNL1       -0.2449
     22 C         140.3416  144.9252  161.9643 C.3     1  UNL1        0.1131
     23 C         140.8879  144.8364  160.5702 C.ar    1  UNL1        0.0076
     24 C         142.2050  144.1626  160.3224 C.ar    1  UNL1        0.0952
     25 N         142.7515  144.0737  158.9283 N.ar    1  UNL1       -0.2411
     26 C         141.9809  144.6586  157.7819 C.ar    1  UNL1        0.1180
     27 C         140.6638  145.3323  158.0298 C.ar    1  UNL1        0.1051
     28 C         140.1173  145.4212  159.4239 C.ar    1  UNL1        0.0186
     29 N         139.8931  145.9171  156.8835 N.ar    1  UNL1       -0.1871
     30 C         139.3794  145.1653  155.6914 C.ar    1  UNL1        0.2259
     31 N         138.6697  146.1399  154.7991 N.ar    1  UNL1       -0.1045
     32 N         138.7447  147.4942  155.4396 N.ar    1  UNL1       -0.0222
     33 N         139.5008  147.3565  156.7278 N.ar    1  UNL1       -0.0384
@<TRIPOS>BOND
     1    11    12    1
     2    12    13   ar
     3    13    10    1
     4    10     9    1
     5     9     1    1
     6     1     2    1
     7     2     3    1
     8     3     4    1
     9     4     5   am
    10     5     6    2
    11     5    22    1
    12    22    23    1
    13    23    24   ar
    14    24    25   ar
    15    25    26   ar
    16    26    27   ar
    17    27    29    1
    18    29    30   ar
    19    30    31   ar
    20    31    32   ar
    21    32    33   ar
    22    27    28   ar
    23     4     7    1
    24     7     8    1
    25    13    14   ar
    26    14    15   ar
    27    15    16   ar
    28    16    17   ar
    29    17    18    1
    30    18    19    1
    31    19    20    1
    32    20    21    2
    33    17    12   ar
    34     8     1    1
    35    20    16    1
    36    28    23   ar
    37    33    29   ar
@<TRIPOS>MOLECULE
*****
 33 37 0 0 0
SMALL
GASTEIGER

@<TRIPOS>ATOM
      1 N         140.1733  138.2630  163.9740 N.3     1  UNL1       -0.2695
      2 C         139.6519  138.7325  162.6482 C.3     1  UNL1        0.0939
      3 C         140.5961  138.9360  161.5005 C.3     1  UNL1        0.1107
      4 N         142.0615  138.6701  161.6785 N.am    1  UNL1       -0.2764
      5 C         143.0056  138.8736  160.5308 C.2     1  UNL1        0.2302
      6 O         144.4711  138.6076  160.7089 O.2     1  UNL1       -0.2745
      7 C         142.5828  138.2005  163.0044 C.3     1  UNL1        0.1107
      8 C         141.6387  137.9970  164.1521 C.3     1  UNL1        0.0939
      9 C         139.2292  138.0594  165.1217 C.3     1  UNL1        0.0769
     10 C         138.4861  139.2281  165.6979 C.3     1  UNL1        0.0433
     11 C         140.4985  141.4408  165.4647 C.3     1  UNL1        0.0305
     12 C         140.0054  141.0148  166.8158 C.ar    1  UNL1       -0.0260
     13 C         138.9992  139.9084  166.9324 C.ar    1  UNL1       -0.0249
     14 C         138.5062  139.4824  168.2834 C.ar    1  UNL1       -0.0043
     15 C         139.0193  140.1626  169.5179 C.ar    1  UNL1        0.0059
     16 C         140.0255  141.2690  169.4013 C.ar    1  UNL1        0.0748
     17 C         140.5185  141.6950  168.0503 C.ar    1  UNL1        0.0233
     18 C         141.5052  142.8077  168.2466 C.3     1  UNL1        0.2352
     19 O         141.6218  143.0693  169.7190 O.3     1  UNL1       -0.4404
     20 C         140.7074  142.1183  170.4326 C.2     1  UNL1        0.3413
     21 O         140.5095  142.0319  171.9170 O.2     1  UNL1       -0.2449
     22 C         142.4843  139.3431  159.2050 C.3     1  UNL1        0.1131
     23 C         142.8125  138.5788  157.9568 C.ar    1  UNL1        0.0076
     24 C         143.3844  139.2934  156.7684 C.ar    1  UNL1        0.0952
     25 N         143.7127  138.5291  155.5201 N.ar    1  UNL1       -0.2411
     26 C         143.4691  137.0503  155.4603 C.ar    1  UNL1        0.1180
     27 C         142.8972  136.3357  156.6487 C.ar    1  UNL1        0.1051
     28 C         142.5689  137.0999  157.8970 C.ar    1  UNL1        0.0186
     29 N         142.6535  134.8568  156.5889 N.ar    1  UNL1       -0.1871
     30 C         143.3015  133.8205  157.4586 C.ar    1  UNL1        0.2259
     31 N         142.7676  132.4778  157.0561 N.ar    1  UNL1       -0.1045
     32 N         141.7898  132.6842  155.9375 N.ar    1  UNL1       -0.0222
     33 N         141.7193  134.1544  155.6488 N.ar    1  UNL1       -0.0384
@<TRIPOS>BOND
     1    11    12    1
     2    12    13   ar
     3    13    10    1
     4    10     9    1
     5     9     1    1
     6     1     2    1
     7     2     3    1
     8     3     4    1
     9     4     5   am
    10     5     6    2
    11     5    22    1
    12    22    23    1
    13    23    24   ar
    14    24    25   ar
    15    25    26   ar
    16    26    27   ar
    17    27    29    1
    18    29    30   ar
    19    30    31   ar
    20    31    32   ar
    21    32    33   ar
    22    27    28   ar
    23     4     7    1
    24     7     8    1
    25    13    14   ar
    26    14    15   ar
    27    15    16   ar
    28    16    17   ar
    29    17    18    1
    30    18    19    1
    31    19    20    1
    32    20    21    2
    33    17    12   ar
    34     8     1    1
    35    20    16    1
    36    28    23   ar
    37    33    29   ar
@<TRIPOS>MOLECULE
*****
 33 37 0 0 0
SMALL
GASTEIGER

@<TRIPOS>ATOM
      1 N         142.3629  138.6061  164.3292 N.3     1  UNL1       -0.2695
      2 C         143.3320  139.6304  163.8177 C.3     1  UNL1        0.0939
      3 C         143.4672  139.8638  162.3420 C.3     1  UNL1        0.1107
      4 N         142.6334  139.0729  161.3780 N.am    1  UNL1       -0.2764
      5 C         142.7687  139.3064  159.9025 C.2     1  UNL1        0.2302
      6 O         141.9349  138.5156  158.9385 O.2     1  UNL1       -0.2745
      7 C         141.6644  138.0486  161.8897 C.3     1  UNL1        0.1107
      8 C         141.5291  137.8152  163.3652 C.3     1  UNL1        0.0939
      9 C         142.2277  138.3726  165.8047 C.3     1  UNL1        0.0769
     10 C         143.0435  139.1806  166.7698 C.3     1  UNL1        0.0433
     11 C         142.6624  138.6639  169.7003 C.3     1  UNL1        0.0305
     12 C         142.1890  139.9538  169.0984 C.ar    1  UNL1       -0.0260
     13 C         142.3796  140.2122  167.6331 C.ar    1  UNL1       -0.0249
     14 C         141.9063  141.5019  167.0312 C.ar    1  UNL1       -0.0043
     15 C         141.2425  142.5334  167.8945 C.ar    1  UNL1        0.0059
     16 C         141.0519  142.2751  169.3597 C.ar    1  UNL1        0.0748
     17 C         141.5251  140.9853  169.9617 C.ar    1  UNL1        0.0233
     18 C         141.2022  141.0112  171.4263 C.3     1  UNL1        0.2352
     19 O         140.5293  142.3171  171.7294 O.3     1  UNL1       -0.4404
     20 C         140.4364  143.0982  170.4523 C.2     1  UNL1        0.3413
     21 O         139.8338  144.4629  170.2952 O.2     1  UNL1       -0.2449
     22 C         143.7378  140.3308  159.3910 C.3     1  UNL1        0.1131
     23 C         143.2441  141.6786  158.9559 C.ar    1  UNL1        0.0076
     24 C         143.5668  142.1880  157.5824 C.ar    1  UNL1        0.0952
     25 N         143.0731  143.5360  157.1471 N.ar    1  UNL1       -0.2411
     26 C         142.2567  144.3745  158.0854 C.ar    1  UNL1        0.1180
     27 C         141.9341  143.8651  159.4589 C.ar    1  UNL1        0.1051
     28 C         142.4277  142.5172  159.8941 C.ar    1  UNL1        0.0186
     29 N         141.1177  144.7037  160.3971 N.ar    1  UNL1       -0.1871
     30 C         141.3259  144.8274  161.8775 C.ar    1  UNL1        0.2259
     31 N         140.2867  145.7659  162.4150 N.ar    1  UNL1       -0.1045
     32 N         139.4361  146.2224  161.2670 N.ar    1  UNL1       -0.0222
     33 N         139.9497  145.5659  160.0199 N.ar    1  UNL1       -0.0384
@<TRIPOS>BOND
     1    11    12    1
     2    12    13   ar
     3    13    10    1
     4    10     9    1
     5     9     1    1
     6     1     2    1
     7     2     3    1
     8     3     4    1
     9     4     5   am
    10     5     6    2
    11     5    22    1
    12    22    23    1
    13    23    24   ar
    14    24    25   ar
    15    25    26   ar
    16    26    27   ar
    17    27    29    1
    18    29    30   ar
    19    30    31   ar
    20    31    32   ar
    21    32    33   ar
    22    27    28   ar
    23     4     7    1
    24     7     8    1
    25    13    14   ar
    26    14    15   ar
    27    15    16   ar
    28    16    17   ar
    29    17    18    1
    30    18    19    1
    31    19    20    1
    32    20    21    2
    33    17    12   ar
    34     8     1    1
    35    20    16    1
    36    28    23   ar
    37    33    29   ar
@<TRIPOS>MOLECULE
*****
 33 37 0 0 0
SMALL
GASTEIGER

@<TRIPOS>ATOM
      1 N         138.6892  141.9767  160.9723 N.3     1  UNL1       -0.2695
      2 C         138.6465  142.3730  162.4184 C.3     1  UNL1        0.0939
      3 C         138.6206  141.3182  163.4846 C.3     1  UNL1        0.1107
      4 N         138.6375  139.8672  163.1048 N.am    1  UNL1       -0.2764
      5 C         138.6116  138.8124  164.1710 C.2     1  UNL1        0.2302
      6 O         138.6284  137.3614  163.7912 O.2     1  UNL1       -0.2745
      7 C         138.6802  139.4710  161.6587 C.3     1  UNL1        0.1107
      8 C         138.7060  140.5257  160.5925 C.3     1  UNL1        0.0939
      9 C         138.7151  143.0314  159.9061 C.3     1  UNL1        0.0769
     10 C         139.9805  143.7883  159.6303 C.3     1  UNL1        0.0433
     11 C         140.6862  145.4012  162.0595 C.3     1  UNL1        0.0305
     12 C         141.5794  144.2797  161.6184 C.ar    1  UNL1       -0.0260
     13 C         141.2266  143.4732  160.4038 C.ar    1  UNL1       -0.0249
     14 C         142.1197  142.3518  159.9627 C.ar    1  UNL1       -0.0043
     15 C         143.3657  142.0368  160.7361 C.ar    1  UNL1        0.0059
     16 C         143.7186  142.8432  161.9506 C.ar    1  UNL1        0.0748
     17 C         142.8254  143.9647  162.3918 C.ar    1  UNL1        0.0233
     18 C         143.4273  144.5811  163.6197 C.3     1  UNL1        0.2352
     19 O         144.6925  143.8405  163.9374 O.3     1  UNL1       -0.4404
     20 C         144.8725  142.7665  162.9059 C.2     1  UNL1        0.3413
     21 O         146.0072  141.7876  162.8411 O.2     1  UNL1       -0.2449
     22 C         138.5689  139.2087  165.6171 C.3     1  UNL1        0.1131
     23 C         139.8450  139.4682  166.3616 C.ar    1  UNL1        0.0076
     24 C         141.1539  139.0134  165.7873 C.ar    1  UNL1        0.0952
     25 N         142.4302  139.2729  166.5318 N.ar    1  UNL1       -0.2411
     26 C         142.3973  139.9870  167.8504 C.ar    1  UNL1        0.1180
     27 C         141.0883  140.4418  168.4246 C.ar    1  UNL1        0.1051
     28 C         139.8121  140.1824  167.6802 C.ar    1  UNL1        0.0186
     29 N         141.0554  141.1559  169.7433 N.ar    1  UNL1       -0.1871
     30 C         139.8233  141.5911  170.4800 C.ar    1  UNL1        0.2259
     31 N         140.2553  142.2644  171.7488 N.ar    1  UNL1       -0.1045
     32 N         141.7544  142.2456  171.7963 N.ar    1  UNL1       -0.0222
     33 N         142.2489  141.5605  170.5569 N.ar    1  UNL1       -0.0384
@<TRIPOS>BOND
     1    11    12    1
     2    12    13   ar
     3    13    10    1
     4    10     9    1
     5     9     1    1
     6     1     2    1
     7     2     3    1
     8     3     4    1
     9     4     5   am
    10     5     6    2
    11     5    22    1
    12    22    23    1
    13    23    24   ar
    14    24    25   ar
    15    25    26   ar
    16    26    27   ar
    17    27    29    1
    18    29    30   ar
    19    30    31   ar
    20    31    32   ar
    21    32    33   ar
    22    27    28   ar
    23     4     7    1
    24     7     8    1
    25    13    14   ar
    26    14    15   ar
    27    15    16   ar
    28    16    17   ar
    29    17    18    1
    30    18    19    1
    31    19    20    1
    32    20    21    2
    33    17    12   ar
    34     8     1    1
    35    20    16    1
    36    28    23   ar
    37    33    29   ar
