@<TRIPOS>MOLECULE
*****
 39 42 0 0 0
SMALL
GASTEIGER

@<TRIPOS>ATOM
      1 C         140.0287  138.3555  157.8401 C.3     1  UNL1        0.1183
      2 N         139.4302  139.2232  158.9073 N.am    1  UNL1       -0.2425
      3 C         138.9984  138.6190  160.2105 C.3     1  UNL1        0.1183
      4 C         138.4000  139.4867  161.2778 C.3     1  UNL1        0.1146
      5 C         138.3531  138.1556  161.9676 C.3     1  UNL1        0.0252
      6 C         138.2334  140.9586  161.0418 C.3     1  UNL1        0.2040
      7 O         138.6652  141.5628  159.7386 O.3     1  UNL1       -0.4351
      8 C         139.2636  140.6951  158.6713 C.2     1  UNL1        0.4049
      9 O         139.6955  141.2994  157.3680 O.2     1  UNL1       -0.2262
     10 N         137.7853  139.8920  162.5846 N.am    1  UNL1       -0.2867
     11 C         138.6283  139.9509  163.8238 C.2     1  UNL1        0.3059
     12 O         140.0862  139.6045  163.7563 O.2     1  UNL1       -0.2524
     13 N         138.0135  140.3563  165.1307 N.am    1  UNL1       -0.2485
     14 H         136.8284  140.1194  162.6289 H       1  UNL1        0.1510
     15 H         137.0566  140.5837  165.1750 H       1  UNL1        0.1583
     16 C         138.8566  140.4152  166.3698 C.ar    1  UNL1        0.1664
     17 N         139.9706  141.3846  166.6330 N.ar    1  UNL1       -0.2283
     18 C         140.5364  141.0837  167.9892 C.ar    1  UNL1        0.0667
     19 C         139.7720  139.9281  168.5643 C.ar    1  UNL1        0.0528
     20 S         138.7339  139.5150  167.5634 S.2     1  UNL1       -0.0511
     21 C         141.6678  141.8105  168.6538 C.3     1  UNL1        0.0360
     22 C         140.7835  143.0059  168.8517 C.3     1  UNL1        0.0059
     23 C         142.5520  140.6151  168.4558 C.3     1  UNL1        0.0059
     24 C         142.7992  142.5374  169.3183 C.3     1  UNL1        0.0059
     25 C         137.6349  141.8263  162.1090 C.3     1  UNL1        0.1181
     26 N         138.4950  142.8098  162.8458 N.3     1  UNL1       -0.2696
     27 C         137.8824  143.7297  163.8600 C.3     1  UNL1        0.0722
     28 C         138.7425  144.7132  164.5967 C.3     1  UNL1        0.0174
     29 C         140.2152  144.7769  164.3194 C.3     1  UNL1        0.0031
     30 C         140.8279  143.8571  163.3052 C.3     1  UNL1        0.0204
     31 C         139.9678  142.8735  162.5684 C.3     1  UNL1        0.0725
     32 C         142.3007  143.9208  163.0279 C.3     1  UNL1        0.0277
     33 C         143.1883  142.7779  163.4226 C.ar    1  UNL1       -0.0220
     34 C         142.7299  141.7956  164.4595 C.ar    1  UNL1       -0.0020
     35 C         143.6176  140.6528  164.8542 C.ar    1  UNL1        0.0293
     36 C         144.9636  140.4921  164.2121 C.ar    1  UNL1        0.1401
     37 F         145.8513  139.3492  164.6069 F       1  UNL1       -0.2042
     38 C         145.4220  141.4743  163.1753 C.ar    1  UNL1        0.0293
     39 C         144.5344  142.6172  162.7805 C.ar    1  UNL1       -0.0020
@<TRIPOS>BOND
     1     1     2    1
     2     2     3    1
     3     3     4    1
     4     4     5    1
     5     4    10    1
     6    10    11   am
     7    11    12    2
     8    11    13   am
     9    13    16    1
    10    16    17   ar
    11    17    18   ar
    12    18    21    1
    13    21    22    1
    14    21    23    1
    15    21    24    1
    16    18    19   ar
    17    19    20   ar
    18     4     6    1
    19     6    25    1
    20    25    26    1
    21    26    27    1
    22    27    28    1
    23    28    29    1
    24    29    30    1
    25    30    32    1
    26    32    33    1
    27    33    34   ar
    28    34    35   ar
    29    35    36   ar
    30    36    37    1
    31    36    38   ar
    32    38    39   ar
    33    30    31    1
    34     6     7    1
    35     7     8    1
    36     8     9    2
    37     8     2   am
    38    20    16   ar
    39    31    26    1
    40    39    33   ar
    41    10    14    1
    42    13    15    1
@<TRIPOS>MOLECULE
*****
 39 42 0 0 0
SMALL
GASTEIGER

@<TRIPOS>ATOM
      1 C         141.9775  143.9562  155.9677 C.3     1  UNL1        0.1183
      2 N         141.1096  143.6155  157.1428 N.am    1  UNL1       -0.2425
      3 C         140.9748  142.1892  157.5872 C.3     1  UNL1        0.1183
      4 C         140.1069  141.8486  158.7622 C.3     1  UNL1        0.1146
      5 C         140.5979  140.4795  158.3954 C.3     1  UNL1        0.0252
      6 C         139.3738  142.9342  159.4929 C.3     1  UNL1        0.2040
      7 O         139.5086  144.3605  159.0485 O.3     1  UNL1       -0.4351
      8 C         140.3765  144.7011  157.8734 C.2     1  UNL1        0.4049
      9 O         140.5112  146.1275  157.4291 O.2     1  UNL1       -0.2262
     10 N         139.4096  141.0324  159.8098 N.am    1  UNL1       -0.2867
     11 C         140.1914  140.4473  160.9484 C.2     1  UNL1        0.3059
     12 O         141.6707  140.6785  161.0394 O.2     1  UNL1       -0.2524
     13 N         139.4939  139.6311  161.9960 N.am    1  UNL1       -0.2485
     14 H         138.4387  140.8807  159.7501 H       1  UNL1        0.1510
     15 H         138.5230  139.4794  161.9363 H       1  UNL1        0.1583
     16 C         140.2758  139.0461  163.1346 C.ar    1  UNL1        0.1664
     17 N         140.7566  139.7873  164.3468 N.ar    1  UNL1       -0.2283
     18 C         141.4922  138.8165  165.2223 C.ar    1  UNL1        0.0667
     19 C         141.4661  137.4752  164.5511 C.ar    1  UNL1        0.0528
     20 S         140.7143  137.6172  163.2608 S.2     1  UNL1       -0.0511
     21 C         142.1401  139.1316  166.5380 C.3     1  UNL1        0.0360
     22 C         143.3698  138.3865  166.1108 C.3     1  UNL1        0.0059
     23 C         140.9103  139.8767  166.9652 C.3     1  UNL1        0.0059
     24 C         142.7880  139.4467  167.8536 C.3     1  UNL1        0.0059
     25 C         138.5059  142.5936  160.6679 C.3     1  UNL1        0.1181
     26 N         138.7037  143.3001  161.9762 N.3     1  UNL1       -0.2696
     27 C         137.5315  143.5498  162.8784 C.3     1  UNL1        0.0722
     28 C         137.7293  144.2564  164.1867 C.3     1  UNL1        0.0174
     29 C         139.0991  144.7132  164.5928 C.3     1  UNL1        0.0031
     30 C         140.2711  144.4635  163.6907 C.3     1  UNL1        0.0204
     31 C         140.0734  143.7570  162.3824 C.3     1  UNL1        0.0725
     32 C         141.6409  144.9204  164.0969 C.3     1  UNL1        0.0277
     33 C         142.7922  143.9595  164.0647 C.ar    1  UNL1       -0.0220
     34 C         142.9570  142.9495  165.1615 C.ar    1  UNL1       -0.0020
     35 C         144.1083  141.9885  165.1294 C.ar    1  UNL1        0.0293
     36 C         145.0949  142.0376  164.0005 C.ar    1  UNL1        0.1401
     37 F         146.2462  141.0766  163.9683 F       1  UNL1       -0.2042
     38 C         144.9301  143.0475  162.9038 C.ar    1  UNL1        0.0293
     39 C         143.7788  144.0085  162.9359 C.ar    1  UNL1       -0.0020
@<TRIPOS>BOND
     1     1     2    1
     2     2     3    1
     3     3     4    1
     4     4     5    1
     5     4    10    1
     6    10    11   am
     7    11    12    2
     8    11    13   am
     9    13    16    1
    10    16    17   ar
    11    17    18   ar
    12    18    21    1
    13    21    22    1
    14    21    23    1
    15    21    24    1
    16    18    19   ar
    17    19    20   ar
    18     4     6    1
    19     6    25    1
    20    25    26    1
    21    26    27    1
    22    27    28    1
    23    28    29    1
    24    29    30    1
    25    30    32    1
    26    32    33    1
    27    33    34   ar
    28    34    35   ar
    29    35    36   ar
    30    36    37    1
    31    36    38   ar
    32    38    39   ar
    33    30    31    1
    34     6     7    1
    35     7     8    1
    36     8     9    2
    37     8     2   am
    38    20    16   ar
    39    31    26    1
    40    39    33   ar
    41    10    14    1
    42    13    15    1
@<TRIPOS>MOLECULE
*****
 39 42 0 0 0
SMALL
GASTEIGER

@<TRIPOS>ATOM
      1 C         139.7529  142.9432  170.7700 C.3     1  UNL1        0.1183
      2 N         140.2753  141.9755  169.7499 N.am    1  UNL1       -0.2425
      3 C         141.5251  142.2945  168.9843 C.3     1  UNL1        0.1183
      4 C         142.0475  141.3268  167.9643 C.3     1  UNL1        0.1146
      5 C         143.0810  142.4079  167.8508 C.3     1  UNL1        0.0252
      6 C         141.3201  140.0399  167.7098 C.3     1  UNL1        0.2040
      7 O         140.0703  139.7208  168.4754 O.3     1  UNL1       -0.4351
      8 C         139.5479  140.6886  169.4954 C.2     1  UNL1        0.4049
      9 O         138.2980  140.3695  170.2610 O.2     1  UNL1       -0.2262
     10 N         142.9289  140.7345  166.9048 N.am    1  UNL1       -0.2867
     11 C         142.9236  141.3071  165.5184 C.2     1  UNL1        0.3059
     12 O         142.0370  142.4720  165.1914 O.2     1  UNL1       -0.2524
     13 N         143.8051  140.7148  164.4590 N.am    1  UNL1       -0.2485
     14 H         143.5108  139.9700  167.1195 H       1  UNL1        0.1510
     15 H         144.3870  139.9502  164.6737 H       1  UNL1        0.1583
     16 C         143.7998  141.2874  163.0727 C.ar    1  UNL1        0.1664
     17 N         142.6937  141.1547  162.0682 N.ar    1  UNL1       -0.2283
     18 C         143.1099  141.8785  160.8220 C.ar    1  UNL1        0.0667
     19 C         144.4732  142.4586  161.0564 C.ar    1  UNL1        0.0528
     20 S         144.8996  142.0933  162.4474 S.2     1  UNL1       -0.0511
     21 C         142.3042  142.0008  159.5626 C.3     1  UNL1        0.0360
     22 C         141.7559  140.6215  159.7795 C.3     1  UNL1        0.0059
     23 C         142.8526  143.3800  159.3458 C.3     1  UNL1        0.0059
     24 C         141.4986  142.1230  158.3033 C.3     1  UNL1        0.0059
     25 C         141.8425  139.0721  166.6897 C.3     1  UNL1        0.1181
     26 N         141.0235  138.7471  165.4758 N.3     1  UNL1       -0.2696
     27 C         141.3226  137.5127  164.6778 C.3     1  UNL1        0.0722
     28 C         140.5037  137.1877  163.4638 C.3     1  UNL1        0.0174
     29 C         139.3856  138.0970  163.0479 C.3     1  UNL1        0.0031
     30 C         139.0865  139.3314  163.8459 C.3     1  UNL1        0.0204
     31 C         139.9055  139.6564  165.0599 C.3     1  UNL1        0.0725
     32 C         137.9684  140.2407  163.4299 C.3     1  UNL1        0.0277
     33 C         138.2491  141.6812  163.1200 C.ar    1  UNL1       -0.0220
     34 C         137.7334  142.7581  164.0280 C.ar    1  UNL1       -0.0020
     35 C         138.0141  144.1986  163.7180 C.ar    1  UNL1        0.0293
     36 C         138.8105  144.5623  162.5001 C.ar    1  UNL1        0.1401
     37 F         139.0912  146.0028  162.1901 F       1  UNL1       -0.2042
     38 C         139.3262  143.4855  161.5921 C.ar    1  UNL1        0.0293
     39 C         139.0455  142.0449  161.9020 C.ar    1  UNL1       -0.0020
@<TRIPOS>BOND
     1     1     2    1
     2     2     3    1
     3     3     4    1
     4     4     5    1
     5     4    10    1
     6    10    11   am
     7    11    12    2
     8    11    13   am
     9    13    16    1
    10    16    17   ar
    11    17    18   ar
    12    18    21    1
    13    21    22    1
    14    21    23    1
    15    21    24    1
    16    18    19   ar
    17    19    20   ar
    18     4     6    1
    19     6    25    1
    20    25    26    1
    21    26    27    1
    22    27    28    1
    23    28    29    1
    24    29    30    1
    25    30    32    1
    26    32    33    1
    27    33    34   ar
    28    34    35   ar
    29    35    36   ar
    30    36    37    1
    31    36    38   ar
    32    38    39   ar
    33    30    31    1
    34     6     7    1
    35     7     8    1
    36     8     9    2
    37     8     2   am
    38    20    16   ar
    39    31    26    1
    40    39    33   ar
    41    10    14    1
    42    13    15    1
@<TRIPOS>MOLECULE
*****
 39 42 0 0 0
SMALL
GASTEIGER

@<TRIPOS>ATOM
      1 C         138.8991  139.4955  157.7474 C.3     1  UNL1        0.1183
      2 N         139.8687  139.2909  158.8735 N.am    1  UNL1       -0.2425
      3 C         139.3882  138.7526  160.1884 C.3     1  UNL1        0.1183
      4 C         140.3577  138.5479  161.3145 C.3     1  UNL1        0.1146
      5 C         139.0916  138.0876  161.9741 C.3     1  UNL1        0.0252
      6 C         141.8079  138.8816  161.1256 C.3     1  UNL1        0.2040
      7 O         142.2884  139.4200  159.8106 O.3     1  UNL1       -0.4351
      8 C         141.3188  139.6246  158.6846 C.2     1  UNL1        0.4049
      9 O         141.7995  140.1630  157.3695 O.2     1  UNL1       -0.2262
     10 N         140.8875  138.1834  162.6697 N.am    1  UNL1       -0.2867
     11 C         140.5544  139.0345  163.8591 C.2     1  UNL1        0.3059
     12 O         139.6915  140.2502  163.6933 O.2     1  UNL1       -0.2524
     13 N         141.0843  138.6699  165.2142 N.am    1  UNL1       -0.2485
     14 H         141.4539  137.3855  162.7785 H       1  UNL1        0.1510
     15 H         141.6506  137.8719  165.3230 H       1  UNL1        0.1583
     16 C         140.7512  139.5210  166.4036 C.ar    1  UNL1        0.1664
     17 N         141.6586  140.5243  167.0517 N.ar    1  UNL1       -0.2283
     18 C         140.9205  141.1417  168.2023 C.ar    1  UNL1        0.0667
     19 C         139.5568  140.5201  168.2653 C.ar    1  UNL1        0.0528
     20 S         139.4522  139.5184  167.1536 S.2     1  UNL1       -0.0511
     21 C         141.4526  142.1957  169.1275 C.3     1  UNL1        0.0360
     22 C         140.1282  142.2480  169.8297 C.3     1  UNL1        0.0059
     23 C         142.7771  142.1435  168.4253 C.3     1  UNL1        0.0059
     24 C         141.9847  143.2497  170.0527 C.3     1  UNL1        0.0059
     25 C         142.7774  138.6770  162.2517 C.3     1  UNL1        0.1181
     26 N         143.4862  139.8536  162.8543 N.3     1  UNL1       -0.2696
     27 C         144.8073  139.6634  163.5389 C.3     1  UNL1        0.0722
     28 C         145.5160  140.8400  164.1416 C.3     1  UNL1        0.0174
     29 C         144.9037  142.2069  164.0597 C.3     1  UNL1        0.0031
     30 C         143.5827  142.3971  163.3751 C.3     1  UNL1        0.0204
     31 C         142.8739  141.2205  162.7725 C.3     1  UNL1        0.0725
     32 C         142.9704  143.7640  163.2933 C.3     1  UNL1        0.0277
     33 C         141.5876  143.9995  163.8247 C.ar    1  UNL1       -0.0220
     34 C         140.6301  144.8691  163.0651 C.ar    1  UNL1       -0.0020
     35 C         139.2474  145.1046  163.5966 C.ar    1  UNL1        0.0293
     36 C         138.8220  144.4705  164.8877 C.ar    1  UNL1        0.1401
     37 F         137.4393  144.7060  165.4192 F       1  UNL1       -0.2042
     38 C         139.7795  143.6009  165.6473 C.ar    1  UNL1        0.0293
     39 C         141.1623  143.3654  165.1159 C.ar    1  UNL1       -0.0020
@<TRIPOS>BOND
     1     1     2    1
     2     2     3    1
     3     3     4    1
     4     4     5    1
     5     4    10    1
     6    10    11   am
     7    11    12    2
     8    11    13   am
     9    13    16    1
    10    16    17   ar
    11    17    18   ar
    12    18    21    1
    13    21    22    1
    14    21    23    1
    15    21    24    1
    16    18    19   ar
    17    19    20   ar
    18     4     6    1
    19     6    25    1
    20    25    26    1
    21    26    27    1
    22    27    28    1
    23    28    29    1
    24    29    30    1
    25    30    32    1
    26    32    33    1
    27    33    34   ar
    28    34    35   ar
    29    35    36   ar
    30    36    37    1
    31    36    38   ar
    32    38    39   ar
    33    30    31    1
    34     6     7    1
    35     7     8    1
    36     8     9    2
    37     8     2   am
    38    20    16   ar
    39    31    26    1
    40    39    33   ar
    41    10    14    1
    42    13    15    1
@<TRIPOS>MOLECULE
*****
 39 42 0 0 0
SMALL
GASTEIGER

@<TRIPOS>ATOM
      1 C         142.5718  142.1711  155.1886 C.3     1  UNL1        0.1183
      2 N         143.0876  142.3249  156.5887 N.am    1  UNL1       -0.2425
      3 C         142.3580  143.1990  157.5651 C.3     1  UNL1        0.1183
      4 C         142.8738  143.3528  158.9652 C.3     1  UNL1        0.1146
      5 C         141.6611  144.2327  159.0363 C.3     1  UNL1        0.0252
      6 C         144.1194  142.6324  159.3889 C.3     1  UNL1        0.2040
      7 O         144.8491  141.7582  158.4125 O.3     1  UNL1       -0.4351
      8 C         144.3332  141.6045  157.0124 C.2     1  UNL1        0.4049
      9 O         145.0629  140.7302  156.0360 O.2     1  UNL1       -0.2262
     10 N         142.9685  143.8122  160.3899 N.am    1  UNL1       -0.2867
     11 C         141.9805  143.3180  161.4046 C.2     1  UNL1        0.3059
     12 O         140.8977  142.3643  160.9945 O.2     1  UNL1       -0.2524
     13 N         142.0752  143.7775  162.8294 N.am    1  UNL1       -0.2485
     14 H         143.6791  144.4381  160.6591 H       1  UNL1        0.1510
     15 H         142.7858  144.4034  163.0986 H       1  UNL1        0.1583
     16 C         141.0872  143.2832  163.8440 C.ar    1  UNL1        0.1664
     17 N         140.9009  141.8575  164.2715 N.ar    1  UNL1       -0.2283
     18 C         139.8105  141.8209  165.3010 C.ar    1  UNL1        0.0667
     19 C         139.3229  143.2240  165.5097 C.ar    1  UNL1        0.0528
     20 S         140.1119  144.1278  164.6092 S.2     1  UNL1       -0.0511
     21 C         139.2978  140.5962  165.9991 C.3     1  UNL1        0.0360
     22 C         138.2138  140.4639  164.9708 C.3     1  UNL1        0.0059
     23 C         140.3818  140.7286  167.0274 C.3     1  UNL1        0.0059
     24 C         138.7851  139.3716  166.6972 C.3     1  UNL1        0.0059
     25 C         144.6352  142.7861  160.7890 C.3     1  UNL1        0.1181
     26 N         144.6166  141.6165  161.7278 N.3     1  UNL1       -0.2696
     27 C         145.3589  141.6876  163.0294 C.3     1  UNL1        0.0722
     28 C         145.3402  140.5179  163.9683 C.3     1  UNL1        0.0174
     29 C         144.5794  139.2771  163.6056 C.3     1  UNL1        0.0031
     30 C         143.8372  139.2060  162.3041 C.3     1  UNL1        0.0204
     31 C         143.8558  140.3757  161.3651 C.3     1  UNL1        0.0725
     32 C         143.0763  137.9652  161.9414 C.3     1  UNL1        0.0277
     33 C         141.5784  137.9976  161.8709 C.ar    1  UNL1       -0.0220
     34 C         140.8960  138.3967  160.5960 C.ar    1  UNL1       -0.0020
     35 C         139.3980  138.4291  160.5256 C.ar    1  UNL1        0.0293
     36 C         138.5824  138.0625  161.7299 C.ar    1  UNL1        0.1401
     37 F         137.0844  138.0950  161.6594 F       1  UNL1       -0.2042
     38 C         139.2647  137.6635  163.0047 C.ar    1  UNL1        0.0293
     39 C         140.7627  137.6310  163.0752 C.ar    1  UNL1       -0.0020
@<TRIPOS>BOND
     1     1     2    1
     2     2     3    1
     3     3     4    1
     4     4     5    1
     5     4    10    1
     6    10    11   am
     7    11    12    2
     8    11    13   am
     9    13    16    1
    10    16    17   ar
    11    17    18   ar
    12    18    21    1
    13    21    22    1
    14    21    23    1
    15    21    24    1
    16    18    19   ar
    17    19    20   ar
    18     4     6    1
    19     6    25    1
    20    25    26    1
    21    26    27    1
    22    27    28    1
    23    28    29    1
    24    29    30    1
    25    30    32    1
    26    32    33    1
    27    33    34   ar
    28    34    35   ar
    29    35    36   ar
    30    36    37    1
    31    36    38   ar
    32    38    39   ar
    33    30    31    1
    34     6     7    1
    35     7     8    1
    36     8     9    2
    37     8     2   am
    38    20    16   ar
    39    31    26    1
    40    39    33   ar
    41    10    14    1
    42    13    15    1
@<TRIPOS>MOLECULE
*****
 39 42 0 0 0
SMALL
GASTEIGER

@<TRIPOS>ATOM
      1 C         139.8394  145.6492  156.8473 C.3     1  UNL1        0.1183
      2 N         140.6430  144.6408  157.6137 N.am    1  UNL1       -0.2425
      3 C         140.0603  143.2928  157.9191 C.3     1  UNL1        0.1183
      4 C         140.8639  142.2844  158.6854 C.3     1  UNL1        0.1146
      5 C         139.6047  141.5000  158.4638 C.3     1  UNL1        0.0252
      6 C         142.2503  142.6240  159.1465 C.3     1  UNL1        0.2040
      7 O         142.8330  143.9720  158.8411 O.3     1  UNL1       -0.4351
      8 C         142.0294  144.9804  158.0748 C.2     1  UNL1        0.4049
      9 O         142.6122  146.3285  157.7694 O.2     1  UNL1       -0.2262
     10 N         141.2301  141.0036  159.3748 N.am    1  UNL1       -0.2867
     11 C         140.5774  140.6383  160.6750 C.2     1  UNL1        0.3059
     12 O         139.5583  141.5540  161.2859 O.2     1  UNL1       -0.2524
     13 N         140.9437  139.3574  161.3644 N.am    1  UNL1       -0.2485
     14 H         141.8990  140.4026  158.9739 H       1  UNL1        0.1510
     15 H         141.6125  138.7564  160.9634 H       1  UNL1        0.1583
     16 C         140.2909  138.9922  162.6645 C.ar    1  UNL1        0.1664
     17 N         140.4434  139.7255  163.9642 N.ar    1  UNL1       -0.2283
     18 C         139.6178  139.0162  164.9963 C.ar    1  UNL1        0.0667
     19 C         138.9549  137.8445  164.3345 C.ar    1  UNL1        0.0528
     20 S         139.3710  137.8298  162.8934 S.2     1  UNL1       -0.0511
     21 C         139.4793  139.4095  166.4372 C.3     1  UNL1        0.0360
     22 C         140.9430  139.7333  166.4896 C.3     1  UNL1        0.0059
     23 C         138.0156  139.0857  166.3849 C.3     1  UNL1        0.0059
     24 C         139.3408  139.8028  167.8781 C.3     1  UNL1        0.0059
     25 C         143.0539  141.6156  159.9129 C.3     1  UNL1        0.1181
     26 N         143.6563  141.9855  161.2358 N.3     1  UNL1       -0.2696
     27 C         144.9827  141.4146  161.6418 C.3     1  UNL1        0.0722
     28 C         145.5851  141.7845  162.9648 C.3     1  UNL1        0.0174
     29 C         144.8612  142.7253  163.8817 C.3     1  UNL1        0.0031
     30 C         143.5349  143.2963  163.4758 C.3     1  UNL1        0.0204
     31 C         142.9324  142.9264  162.1528 C.3     1  UNL1        0.0725
     32 C         142.8110  144.2371  164.3927 C.3     1  UNL1        0.0277
     33 C         141.3177  144.1657  164.5139 C.ar    1  UNL1       -0.0220
     34 C         140.4526  145.0340  163.6490 C.ar    1  UNL1       -0.0020
     35 C         138.9593  144.9626  163.7702 C.ar    1  UNL1        0.0293
     36 C         138.3309  144.0230  164.7562 C.ar    1  UNL1        0.1401
     37 F         136.8375  143.9517  164.8774 F       1  UNL1       -0.2042
     38 C         139.1958  143.1549  165.6211 C.ar    1  UNL1        0.0293
     39 C         140.6893  143.2262  165.5000 C.ar    1  UNL1       -0.0020
@<TRIPOS>BOND
     1     1     2    1
     2     2     3    1
     3     3     4    1
     4     4     5    1
     5     4    10    1
     6    10    11   am
     7    11    12    2
     8    11    13   am
     9    13    16    1
    10    16    17   ar
    11    17    18   ar
    12    18    21    1
    13    21    22    1
    14    21    23    1
    15    21    24    1
    16    18    19   ar
    17    19    20   ar
    18     4     6    1
    19     6    25    1
    20    25    26    1
    21    26    27    1
    22    27    28    1
    23    28    29    1
    24    29    30    1
    25    30    32    1
    26    32    33    1
    27    33    34   ar
    28    34    35   ar
    29    35    36   ar
    30    36    37    1
    31    36    38   ar
    32    38    39   ar
    33    30    31    1
    34     6     7    1
    35     7     8    1
    36     8     9    2
    37     8     2   am
    38    20    16   ar
    39    31    26    1
    40    39    33   ar
    41    10    14    1
    42    13    15    1
@<TRIPOS>MOLECULE
*****
 39 42 0 0 0
SMALL
GASTEIGER

@<TRIPOS>ATOM
      1 C         140.5305  143.0987  154.6053 C.3     1  UNL1        0.1183
      2 N         140.5353  143.5862  156.0239 N.am    1  UNL1       -0.2425
      3 C         141.7987  143.5334  156.8308 C.3     1  UNL1        0.1183
      4 C         141.8036  144.0210  158.2493 C.3     1  UNL1        0.1146
      5 C         143.2366  143.5990  158.1139 C.3     1  UNL1        0.0252
      6 C         140.5451  144.5613  158.8610 C.3     1  UNL1        0.2040
      7 O         139.2818  144.6142  158.0541 O.3     1  UNL1       -0.4351
      8 C         139.2769  144.1266  156.6355 C.2     1  UNL1        0.4049
      9 O         138.0134  144.1795  155.8287 O.2     1  UNL1       -0.2262
     10 N         142.3062  144.3619  159.6208 N.am    1  UNL1       -0.2867
     11 C         142.7704  143.2728  160.5418 C.2     1  UNL1        0.3059
     12 O         142.7319  141.8425  160.0913 O.2     1  UNL1       -0.2524
     13 N         143.2730  143.6139  161.9134 N.am    1  UNL1       -0.2485
     14 H         142.3315  145.3006  159.9165 H       1  UNL1        0.1510
     15 H         143.2983  144.5526  162.2091 H       1  UNL1        0.1583
     16 C         143.7372  142.5247  162.8343 C.ar    1  UNL1        0.1664
     17 N         142.8827  141.7720  163.8107 N.ar    1  UNL1       -0.2283
     18 C         143.7546  140.7790  164.5205 C.ar    1  UNL1        0.0667
     19 C         145.1481  140.9180  163.9827 C.ar    1  UNL1        0.0528
     20 S         145.1372  141.9969  162.9406 S.2     1  UNL1       -0.0511
     21 C         143.3111  139.8161  165.5816 C.3     1  UNL1        0.0360
     22 C         144.3946  138.8637  165.1704 C.3     1  UNL1        0.0059
     23 C         142.2276  140.7684  165.9929 C.3     1  UNL1        0.0059
     24 C         142.8676  138.8531  166.6428 C.3     1  UNL1        0.0059
     25 C         140.5500  145.0489  160.2795 C.3     1  UNL1        0.1181
     26 N         139.6474  144.4124  161.2945 N.3     1  UNL1       -0.2696
     27 C         139.1137  145.2242  162.4374 C.3     1  UNL1        0.0722
     28 C         138.2111  144.5876  163.4523 C.3     1  UNL1        0.0174
     29 C         137.8422  143.1394  163.3244 C.3     1  UNL1        0.0031
     30 C         138.3759  142.3276  162.1816 C.3     1  UNL1        0.0204
     31 C         139.2785  142.9641  161.1665 C.3     1  UNL1        0.0725
     32 C         138.0070  140.8793  162.0537 C.3     1  UNL1        0.0277
     33 C         138.8539  139.8289  162.7090 C.ar    1  UNL1       -0.0220
     34 C         140.1873  139.4681  162.1242 C.ar    1  UNL1       -0.0020
     35 C         141.0342  138.4177  162.7795 C.ar    1  UNL1        0.0293
     36 C         140.5477  137.7281  164.0196 C.ar    1  UNL1        0.1401
     37 F         141.3946  136.6778  164.6749 F       1  UNL1       -0.2042
     38 C         139.2144  138.0889  164.6044 C.ar    1  UNL1        0.0293
     39 C         138.3674  139.1393  163.9491 C.ar    1  UNL1       -0.0020
@<TRIPOS>BOND
     1     1     2    1
     2     2     3    1
     3     3     4    1
     4     4     5    1
     5     4    10    1
     6    10    11   am
     7    11    12    2
     8    11    13   am
     9    13    16    1
    10    16    17   ar
    11    17    18   ar
    12    18    21    1
    13    21    22    1
    14    21    23    1
    15    21    24    1
    16    18    19   ar
    17    19    20   ar
    18     4     6    1
    19     6    25    1
    20    25    26    1
    21    26    27    1
    22    27    28    1
    23    28    29    1
    24    29    30    1
    25    30    32    1
    26    32    33    1
    27    33    34   ar
    28    34    35   ar
    29    35    36   ar
    30    36    37    1
    31    36    38   ar
    32    38    39   ar
    33    30    31    1
    34     6     7    1
    35     7     8    1
    36     8     9    2
    37     8     2   am
    38    20    16   ar
    39    31    26    1
    40    39    33   ar
    41    10    14    1
    42    13    15    1
@<TRIPOS>MOLECULE
*****
 39 42 0 0 0
SMALL
GASTEIGER

@<TRIPOS>ATOM
      1 C         139.8710  143.2715  170.7411 C.3     1  UNL1        0.1183
      2 N         140.6317  142.3468  169.8376 N.am    1  UNL1       -0.2425
      3 C         139.9017  141.3007  169.0484 C.3     1  UNL1        0.1183
      4 C         140.6624  140.3760  168.1449 C.3     1  UNL1        0.1146
      5 C         139.2677  139.8728  167.9182 C.3     1  UNL1        0.0252
      6 C         142.1531  140.4975  168.0306 C.3     1  UNL1        0.2040
      7 O         142.8830  141.5436  168.8197 O.3     1  UNL1       -0.4351
      8 C         142.1223  142.4682  169.7232 C.2     1  UNL1        0.4049
      9 O         142.8524  143.5144  170.5124 O.2     1  UNL1       -0.2262
     10 N         140.9387  139.2766  167.1627 N.am    1  UNL1       -0.2867
     11 C         140.4936  139.4152  165.7369 C.2     1  UNL1        0.3059
     12 O         139.7722  140.6533  165.2934 O.2     1  UNL1       -0.2524
     13 N         140.7699  138.3156  164.7547 N.am    1  UNL1       -0.2485
     14 H         141.4122  138.4640  167.4537 H       1  UNL1        0.1510
     15 H         141.2434  137.5030  165.0458 H       1  UNL1        0.1583
     16 C         140.3248  138.4542  163.3290 C.ar    1  UNL1        0.1664
     17 N         141.0755  139.1541  162.2351 N.ar    1  UNL1       -0.2283
     18 C         140.2656  139.0499  160.9769 C.ar    1  UNL1        0.0667
     19 C         139.0143  138.2855  161.2932 C.ar    1  UNL1        0.0528
     20 S         139.0509  137.9174  162.7469 S.2     1  UNL1       -0.0511
     21 C         140.6411  139.6114  159.6376 C.3     1  UNL1        0.0360
     22 C         141.5265  140.6194  160.3083 C.3     1  UNL1        0.0059
     23 C         139.7557  138.6033  158.9668 C.3     1  UNL1        0.0059
     24 C         141.0165  140.1728  158.2982 C.3     1  UNL1        0.0059
     25 C         142.9138  139.5728  167.1271 C.3     1  UNL1        0.1181
     26 N         143.5597  140.1042  165.8819 N.3     1  UNL1       -0.2696
     27 C         144.2502  139.1664  164.9364 C.3     1  UNL1        0.0722
     28 C         144.8960  139.6978  163.6912 C.3     1  UNL1        0.0174
     29 C         144.8514  141.1669  163.3915 C.3     1  UNL1        0.0031
     30 C         144.1609  142.1046  164.3369 C.3     1  UNL1        0.0204
     31 C         143.5151  141.5732  165.5822 C.3     1  UNL1        0.0725
     32 C         144.1163  143.5736  164.0372 C.3     1  UNL1        0.0277
     33 C         142.9997  144.1365  163.2088 C.ar    1  UNL1       -0.0220
     34 C         141.9813  145.0407  163.8378 C.ar    1  UNL1       -0.0020
     35 C         140.8647  145.6035  163.0094 C.ar    1  UNL1        0.0293
     36 C         140.7664  145.2623  161.5520 C.ar    1  UNL1        0.1401
     37 F         139.6498  145.8252  160.7236 F       1  UNL1       -0.2042
     38 C         141.7847  144.3582  160.9230 C.ar    1  UNL1        0.0293
     39 C         142.9014  143.7953  161.7514 C.ar    1  UNL1       -0.0020
@<TRIPOS>BOND
     1     1     2    1
     2     2     3    1
     3     3     4    1
     4     4     5    1
     5     4    10    1
     6    10    11   am
     7    11    12    2
     8    11    13   am
     9    13    16    1
    10    16    17   ar
    11    17    18   ar
    12    18    21    1
    13    21    22    1
    14    21    23    1
    15    21    24    1
    16    18    19   ar
    17    19    20   ar
    18     4     6    1
    19     6    25    1
    20    25    26    1
    21    26    27    1
    22    27    28    1
    23    28    29    1
    24    29    30    1
    25    30    32    1
    26    32    33    1
    27    33    34   ar
    28    34    35   ar
    29    35    36   ar
    30    36    37    1
    31    36    38   ar
    32    38    39   ar
    33    30    31    1
    34     6     7    1
    35     7     8    1
    36     8     9    2
    37     8     2   am
    38    20    16   ar
    39    31    26    1
    40    39    33   ar
    41    10    14    1
    42    13    15    1
@<TRIPOS>MOLECULE
*****
 39 42 0 0 0
SMALL
GASTEIGER

@<TRIPOS>ATOM
      1 C         137.9032  145.3971  154.9684 C.3     1  UNL1        0.1183
      2 N         138.8735  144.9911  156.0378 N.am    1  UNL1       -0.2425
      3 C         138.9984  143.5483  156.4286 C.3     1  UNL1        0.1183
      4 C         139.9687  143.1422  157.4980 C.3     1  UNL1        0.1146
      5 C         139.3906  141.8029  157.1486 C.3     1  UNL1        0.0252
      6 C         140.8141  144.1789  158.1766 C.3     1  UNL1        0.2040
      7 O         140.6892  145.6217  157.7858 O.3     1  UNL1       -0.4351
      8 C         139.7189  146.0278  156.7164 C.2     1  UNL1        0.4049
      9 O         139.5940  147.4706  156.3256 O.2     1  UNL1       -0.2262
     10 N         140.7382  142.2710  158.4460 N.am    1  UNL1       -0.2867
     11 C         140.0115  141.4612  159.4785 C.2     1  UNL1        0.3059
     12 O         138.5151  141.5227  159.5630 O.2     1  UNL1       -0.2524
     13 N         140.7811  140.5900  160.4266 N.am    1  UNL1       -0.2485
     14 H         141.7203  142.2306  158.3906 H       1  UNL1        0.1510
     15 H         141.7632  140.5496  160.3711 H       1  UNL1        0.1583
     16 C         140.0542  139.7802  161.4590 C.ar    1  UNL1        0.1664
     17 N         139.8426  140.1656  162.8932 N.ar    1  UNL1       -0.2283
     18 C         139.0690  139.0666  163.5592 C.ar    1  UNL1        0.0667
     19 C         138.8025  138.0019  162.5367 C.ar    1  UNL1        0.0528
     20 S         139.4114  138.4430  161.2387 S.2     1  UNL1       -0.0511
     21 C         138.6376  139.0374  164.9956 C.3     1  UNL1        0.0360
     22 C         139.1150  137.6200  165.1101 C.3     1  UNL1        0.0059
     23 C         138.1602  140.4547  164.8811 C.3     1  UNL1        0.0059
     24 C         138.2062  139.0081  166.4319 C.3     1  UNL1        0.0059
     25 C         141.7844  143.7729  159.2460 C.3     1  UNL1        0.1181
     26 N         141.5810  144.2354  160.6583 N.3     1  UNL1       -0.2696
     27 C         140.4721  145.1925  160.9816 C.3     1  UNL1        0.0722
     28 C         140.2686  145.6551  162.3939 C.3     1  UNL1        0.0174
     29 C         141.1739  145.1606  163.4829 C.3     1  UNL1        0.0031
     30 C         142.2827  144.2036  163.1596 C.3     1  UNL1        0.0204
     31 C         142.4863  143.7409  161.7473 C.3     1  UNL1        0.0725
     32 C         143.1880  143.7091  164.2486 C.3     1  UNL1        0.0277
     33 C         143.1594  142.2639  164.6492 C.ar    1  UNL1       -0.0220
     34 C         142.0845  141.7610  165.5667 C.ar    1  UNL1       -0.0020
     35 C         142.0559  140.3158  165.9673 C.ar    1  UNL1        0.0293
     36 C         143.1022  139.3734  165.4505 C.ar    1  UNL1        0.1401
     37 F         143.0736  137.9282  165.8511 F       1  UNL1       -0.2042
     38 C         144.1771  139.8762  164.5331 C.ar    1  UNL1        0.0293
     39 C         144.2058  141.3215  164.1324 C.ar    1  UNL1       -0.0020
@<TRIPOS>BOND
     1     1     2    1
     2     2     3    1
     3     3     4    1
     4     4     5    1
     5     4    10    1
     6    10    11   am
     7    11    12    2
     8    11    13   am
     9    13    16    1
    10    16    17   ar
    11    17    18   ar
    12    18    21    1
    13    21    22    1
    14    21    23    1
    15    21    24    1
    16    18    19   ar
    17    19    20   ar
    18     4     6    1
    19     6    25    1
    20    25    26    1
    21    26    27    1
    22    27    28    1
    23    28    29    1
    24    29    30    1
    25    30    32    1
    26    32    33    1
    27    33    34   ar
    28    34    35   ar
    29    35    36   ar
    30    36    37    1
    31    36    38   ar
    32    38    39   ar
    33    30    31    1
    34     6     7    1
    35     7     8    1
    36     8     9    2
    37     8     2   am
    38    20    16   ar
    39    31    26    1
    40    39    33   ar
    41    10    14    1
    42    13    15    1
