@<TRIPOS>MOLECULE
*****
 31 35 0 0 0
SMALL
GASTEIGER

@<TRIPOS>ATOM
      1 C         141.8080  144.4023  160.6616 C.ar    1  UNL1        0.1475
      2 C         140.5341  145.1119  160.3100 C.ar    1  UNL1        0.0406
      3 C         140.5810  145.4527  158.8500 C.ar    1  UNL1        0.0373
      4 C         139.6057  146.1529  157.9509 C.ar    1  UNL1       -0.0008
      5 C         139.9333  146.3541  156.5011 C.ar    1  UNL1       -0.0176
      6 C         141.2362  145.8551  155.9503 C.ar    1  UNL1       -0.0008
      7 C         142.2115  145.1549  156.8494 C.ar    1  UNL1        0.0372
      8 C         141.8839  144.9537  158.2992 C.ar    1  UNL1        0.1453
      9 O         142.6422  144.3045  159.4189 O.2     1  UNL1       -0.4534
     10 C         142.9299  142.8410  164.7302 C.ar    1  UNL1       -0.0039
     11 C         143.4912  144.1451  164.2464 C.ar    1  UNL1       -0.0027
     12 C         143.1172  144.6655  162.8902 C.ar    1  UNL1        0.0050
     13 C         142.1819  143.8819  162.0178 C.ar    1  UNL1        0.0620
     14 C         141.6206  142.5777  162.5017 C.ar    1  UNL1        0.1427
     15 F         140.6853  141.7940  161.6293 F       1  UNL1       -0.2041
     16 C         141.9946  142.0573  163.8579 C.ar    1  UNL1        0.0268
     17 C         143.3039  142.3205  166.0864 C.3     1  UNL1        0.0992
     18 C         140.9400  142.5312  168.8218 C.3     1  UNL1        0.0684
     19 C         140.8332  142.5257  167.3256 C.3     1  UNL1        0.0793
     20 N         142.3248  142.4078  167.2194 N.3     1  UNL1       -0.2682
     21 C         142.4316  142.4133  168.7156 C.3     1  UNL1        0.0793
     22 O         139.1921  141.4017  170.3771 O.co2   1  UNL1       -0.5491
     23 C         139.9609  142.6185  169.9548 C.2     1  UNL1        0.0527
     24 O         139.7507  143.9225  170.6655 O.co2   1  UNL1       -0.5491
     25 C         138.9579  147.0543  155.6019 C.3     1  UNL1        0.0526
     26 C         139.1538  148.5032  155.2666 C.ar    1  UNL1       -0.0178
     27 C         138.4758  149.5610  156.0861 C.ar    1  UNL1       -0.0039
     28 C         138.6717  151.0099  155.7508 C.ar    1  UNL1       -0.0003
     29 C         139.5456  151.4009  154.5960 C.ar    1  UNL1       -0.0000
     30 C         140.2235  150.3432  153.7766 C.ar    1  UNL1       -0.0003
     31 C         140.0276  148.8943  154.1119 C.ar    1  UNL1       -0.0039
@<TRIPOS>UNITY_ATOM_ATTR
22 1
charge -1
@<TRIPOS>BOND
     1    22    23   ar
     2    23    24   ar
     3    23    18    1
     4    18    19    1
     5    19    20    1
     6    20    17    1
     7    17    10    1
     8    10    11   ar
     9    11    12   ar
    10    12    13   ar
    11    13     1    1
    12     1     2   ar
    13     2     3   ar
    14     3     4   ar
    15     4     5   ar
    16     5    25    1
    17    25    26    1
    18    26    27   ar
    19    27    28   ar
    20    28    29   ar
    21    29    30   ar
    22    30    31   ar
    23     5     6   ar
    24     6     7   ar
    25     7     8   ar
    26     8     9   ar
    27    13    14   ar
    28    14    15    1
    29    14    16   ar
    30    20    21    1
    31    21    18    1
    32    16    10   ar
    33     9     1   ar
    34     8     3   ar
    35    31    26   ar
@<TRIPOS>MOLECULE
*****
 31 35 0 0 0
SMALL
GASTEIGER

@<TRIPOS>ATOM
      1 C         140.4236  138.6319  163.0294 C.ar    1  UNL1        0.1475
      2 C         141.0083  139.5176  164.0895 C.ar    1  UNL1        0.0406
      3 C         140.1487  139.4051  165.3136 C.ar    1  UNL1        0.0373
      4 C         140.2379  140.0490  166.6653 C.ar    1  UNL1       -0.0008
      5 C         139.2112  139.7378  167.7136 C.ar    1  UNL1       -0.0176
      6 C         138.0952  138.7826  167.4101 C.ar    1  UNL1       -0.0008
      7 C         138.0059  138.1386  166.0583 C.ar    1  UNL1        0.0372
      8 C         139.0327  138.4499  165.0100 C.ar    1  UNL1        0.1453
      9 O         139.2026  137.9721  163.5984 O.2     1  UNL1       -0.4534
     10 C         142.0474  138.0557  158.8723 C.ar    1  UNL1       -0.0039
     11 C         140.6288  138.5019  159.0682 C.ar    1  UNL1       -0.0027
     12 C         140.0875  138.6940  160.4539 C.ar    1  UNL1        0.0050
     13 C         140.9649  138.4399  161.6437 C.ar    1  UNL1        0.0620
     14 C         142.3835  137.9937  161.4478 C.ar    1  UNL1        0.1427
     15 F         143.2609  137.7395  162.6376 F       1  UNL1       -0.2041
     16 C         142.9247  137.8016  160.0621 C.ar    1  UNL1        0.0268
     17 C         142.5886  137.8636  157.4866 C.3     1  UNL1        0.0992
     18 C         142.2811  134.6467  155.8523 C.3     1  UNL1        0.0684
     19 C         143.2553  135.2586  156.8149 C.3     1  UNL1        0.0793
     20 N         142.4613  136.5312  156.8097 N.3     1  UNL1       -0.2682
     21 C         141.4871  135.9193  155.8471 C.3     1  UNL1        0.0793
     22 O         141.6923  132.1183  155.9543 O.co2   1  UNL1       -0.5491
     23 C         142.1537  133.3142  155.1754 C.2     1  UNL1        0.0527
     24 O         142.4878  133.1777  153.7195 O.co2   1  UNL1       -0.5491
     25 C         139.3004  140.3817  169.0654 C.3     1  UNL1        0.0526
     26 C         140.5314  141.1467  169.4520 C.ar    1  UNL1       -0.0178
     27 C         141.8183  140.4186  169.7049 C.ar    1  UNL1       -0.0039
     28 C         143.0494  141.1835  170.0914 C.ar    1  UNL1       -0.0003
     29 C         142.9935  142.6766  170.2251 C.ar    1  UNL1       -0.0000
     30 C         141.7067  143.4046  169.9722 C.ar    1  UNL1       -0.0003
     31 C         140.4756  142.6396  169.5857 C.ar    1  UNL1       -0.0039
@<TRIPOS>UNITY_ATOM_ATTR
22 1
charge -1
@<TRIPOS>BOND
     1    22    23   ar
     2    23    24   ar
     3    23    18    1
     4    18    19    1
     5    19    20    1
     6    20    17    1
     7    17    10    1
     8    10    11   ar
     9    11    12   ar
    10    12    13   ar
    11    13     1    1
    12     1     2   ar
    13     2     3   ar
    14     3     4   ar
    15     4     5   ar
    16     5    25    1
    17    25    26    1
    18    26    27   ar
    19    27    28   ar
    20    28    29   ar
    21    29    30   ar
    22    30    31   ar
    23     5     6   ar
    24     6     7   ar
    25     7     8   ar
    26     8     9   ar
    27    13    14   ar
    28    14    15    1
    29    14    16   ar
    30    20    21    1
    31    21    18    1
    32    16    10   ar
    33     9     1   ar
    34     8     3   ar
    35    31    26   ar
@<TRIPOS>MOLECULE
*****
 31 35 0 0 0
SMALL
GASTEIGER

@<TRIPOS>ATOM
      1 C         140.1915  138.9294  161.7090 C.ar    1  UNL1        0.1475
      2 C         141.3404  138.1059  161.2072 C.ar    1  UNL1        0.0406
      3 C         141.5097  138.3894  159.7439 C.ar    1  UNL1        0.0373
      4 C         142.4798  137.8671  158.7261 C.ar    1  UNL1       -0.0008
      5 C         142.4056  138.3436  157.3058 C.ar    1  UNL1       -0.0176
      6 C         141.3613  139.3423  156.9032 C.ar    1  UNL1       -0.0008
      7 C         140.3912  139.8645  157.9211 C.ar    1  UNL1        0.0372
      8 C         140.4653  139.3881  159.3414 C.ar    1  UNL1        0.1453
      9 O         139.6507  139.7218  160.5559 O.2     1  UNL1       -0.4534
     10 C         138.6396  139.0087  165.9322 C.ar    1  UNL1       -0.0039
     11 C         138.9260  137.6973  165.2629 C.ar    1  UNL1       -0.0027
     12 C         139.4432  137.6708  163.8552 C.ar    1  UNL1        0.0050
     13 C         139.6742  138.9559  163.1167 C.ar    1  UNL1        0.0620
     14 C         139.3878  140.2673  163.7860 C.ar    1  UNL1        0.1427
     15 F         139.6187  141.5525  163.0476 F       1  UNL1       -0.2041
     16 C         138.8705  140.2938  165.1938 C.ar    1  UNL1        0.0268
     17 C         138.1223  139.0352  167.3399 C.3     1  UNL1        0.0992
     18 C         140.1106  140.5299  169.9719 C.3     1  UNL1        0.0684
     19 C         140.3963  139.9970  168.5991 C.3     1  UNL1        0.0793
     20 N         138.9458  139.6543  168.4301 N.3     1  UNL1       -0.2682
     21 C         138.6600  140.1872  169.8028 C.3     1  UNL1        0.0793
     22 O         142.3765  140.7690  171.2201 O.co2   1  UNL1       -0.5491
     23 C         140.9341  141.1490  171.0620 C.2     1  UNL1        0.0527
     24 O         140.3152  142.1481  171.9940 O.co2   1  UNL1       -0.5491
     25 C         143.3758  137.8213  156.2878 C.3     1  UNL1        0.0526
     26 C         143.1750  136.4606  155.6894 C.ar    1  UNL1       -0.0178
     27 C         142.3907  136.3078  154.4199 C.ar    1  UNL1       -0.0039
     28 C         142.1899  134.9471  153.8215 C.ar    1  UNL1       -0.0003
     29 C         142.7735  133.7391  154.4926 C.ar    1  UNL1       -0.0000
     30 C         143.5577  133.8919  155.7621 C.ar    1  UNL1       -0.0003
     31 C         143.7584  135.2526  156.3605 C.ar    1  UNL1       -0.0039
@<TRIPOS>UNITY_ATOM_ATTR
22 1
charge -1
@<TRIPOS>BOND
     1    22    23   ar
     2    23    24   ar
     3    23    18    1
     4    18    19    1
     5    19    20    1
     6    20    17    1
     7    17    10    1
     8    10    11   ar
     9    11    12   ar
    10    12    13   ar
    11    13     1    1
    12     1     2   ar
    13     2     3   ar
    14     3     4   ar
    15     4     5   ar
    16     5    25    1
    17    25    26    1
    18    26    27   ar
    19    27    28   ar
    20    28    29   ar
    21    29    30   ar
    22    30    31   ar
    23     5     6   ar
    24     6     7   ar
    25     7     8   ar
    26     8     9   ar
    27    13    14   ar
    28    14    15    1
    29    14    16   ar
    30    20    21    1
    31    21    18    1
    32    16    10   ar
    33     9     1   ar
    34     8     3   ar
    35    31    26   ar
@<TRIPOS>MOLECULE
*****
 31 35 0 0 0
SMALL
GASTEIGER

@<TRIPOS>ATOM
      1 C         142.1443  138.2367  161.1416 C.ar    1  UNL1        0.1475
      2 C         143.1352  137.7238  160.1391 C.ar    1  UNL1        0.0406
      3 C         142.4727  137.7187  158.7933 C.ar    1  UNL1        0.0373
      4 C         142.9637  137.3157  157.4344 C.ar    1  UNL1       -0.0008
      5 C         142.0543  137.4225  156.2464 C.ar    1  UNL1       -0.0176
      6 C         140.6539  137.9321  156.4172 C.ar    1  UNL1       -0.0008
      7 C         140.1629  138.3351  157.7760 C.ar    1  UNL1        0.0372
      8 C         141.0723  138.2283  158.9641 C.ar    1  UNL1        0.1453
      9 O         140.8694  138.5485  160.4154 O.2     1  UNL1       -0.4534
     10 C         142.8691  138.7498  165.5531 C.ar    1  UNL1       -0.0039
     11 C         141.7312  137.8979  165.0741 C.ar    1  UNL1       -0.0027
     12 C         141.4896  137.7269  163.6036 C.ar    1  UNL1        0.0050
     13 C         142.3859  138.4077  162.6121 C.ar    1  UNL1        0.0620
     14 C         143.5238  139.2595  163.0911 C.ar    1  UNL1        0.1427
     15 F         144.4202  139.9404  162.0996 F       1  UNL1       -0.2041
     16 C         143.7654  139.4306  164.5616 C.ar    1  UNL1        0.0268
     17 C         143.1107  138.9208  167.0236 C.3     1  UNL1        0.0992
     18 C         140.4720  140.1856  169.1571 C.3     1  UNL1        0.0684
     19 C         140.6890  140.1009  167.6752 C.3     1  UNL1        0.0793
     20 N         142.0178  139.4447  167.9073 N.3     1  UNL1       -0.2682
     21 C         141.8007  139.5294  169.3891 C.3     1  UNL1        0.0793
     22 O         139.4600  142.1040  170.5873 O.co2   1  UNL1       -0.5491
     23 C         139.3790  140.7095  170.0408 C.2     1  UNL1        0.0527
     24 O         138.2050  139.8388  170.3779 O.co2   1  UNL1       -0.5491
     25 C         142.5452  137.0195  154.8874 C.3     1  UNL1        0.0526
     26 C         142.5037  135.5788  154.4718 C.ar    1  UNL1       -0.0178
     27 C         143.1317  134.5293  155.3403 C.ar    1  UNL1       -0.0039
     28 C         143.0902  133.0886  154.9247 C.ar    1  UNL1       -0.0003
     29 C         142.4208  132.6975  153.6405 C.ar    1  UNL1       -0.0000
     30 C         141.7929  133.7470  152.7721 C.ar    1  UNL1       -0.0003
     31 C         141.8344  135.1877  153.1877 C.ar    1  UNL1       -0.0039
@<TRIPOS>UNITY_ATOM_ATTR
22 1
charge -1
@<TRIPOS>BOND
     1    22    23   ar
     2    23    24   ar
     3    23    18    1
     4    18    19    1
     5    19    20    1
     6    20    17    1
     7    17    10    1
     8    10    11   ar
     9    11    12   ar
    10    12    13   ar
    11    13     1    1
    12     1     2   ar
    13     2     3   ar
    14     3     4   ar
    15     4     5   ar
    16     5    25    1
    17    25    26    1
    18    26    27   ar
    19    27    28   ar
    20    28    29   ar
    21    29    30   ar
    22    30    31   ar
    23     5     6   ar
    24     6     7   ar
    25     7     8   ar
    26     8     9   ar
    27    13    14   ar
    28    14    15    1
    29    14    16   ar
    30    20    21    1
    31    21    18    1
    32    16    10   ar
    33     9     1   ar
    34     8     3   ar
    35    31    26   ar
@<TRIPOS>MOLECULE
*****
 31 35 0 0 0
SMALL
GASTEIGER

@<TRIPOS>ATOM
      1 C         141.9762  139.7620  161.4936 C.ar    1  UNL1        0.1475
      2 C         142.9581  139.0512  160.6102 C.ar    1  UNL1        0.0406
      3 C         142.2182  138.5464  159.4069 C.ar    1  UNL1        0.0373
      4 C         142.6691  137.7751  158.2020 C.ar    1  UNL1       -0.0008
      5 C         141.6807  137.4027  157.1370 C.ar    1  UNL1       -0.0176
      6 C         140.2415  137.8015  157.2768 C.ar    1  UNL1       -0.0008
      7 C         139.7906  138.5728  158.4817 C.ar    1  UNL1        0.0372
      8 C         140.7790  138.9452  159.5467 C.ar    1  UNL1        0.1453
      9 O         140.6294  139.6965  160.8364 O.2     1  UNL1       -0.4534
     10 C         142.9072  141.7430  165.4254 C.ar    1  UNL1       -0.0039
     11 C         142.3980  142.5607  164.2756 C.ar    1  UNL1       -0.0027
     12 C         142.0877  141.9004  162.9650 C.ar    1  UNL1        0.0050
     13 C         142.2865  140.4223  162.8042 C.ar    1  UNL1        0.0620
     14 C         142.7956  139.6047  163.9541 C.ar    1  UNL1        0.1427
     15 F         142.9944  138.1266  163.7933 F       1  UNL1       -0.2041
     16 C         143.1060  140.2650  165.2646 C.ar    1  UNL1        0.0268
     17 C         143.2175  142.4034  166.7360 C.3     1  UNL1        0.0992
     18 C         141.3467  141.5053  169.7039 C.3     1  UNL1        0.0684
     19 C         140.9867  141.9431  168.3151 C.3     1  UNL1        0.0793
     20 N         142.4426  142.0314  167.9653 N.3     1  UNL1       -0.2682
     21 C         142.8027  141.5936  169.3541 C.3     1  UNL1        0.0793
     22 O         139.8142  139.8396  170.9793 O.co2   1  UNL1       -0.5491
     23 C         140.5719  141.1334  170.9331 C.2     1  UNL1        0.0527
     24 O         140.5547  142.0552  172.1163 O.co2   1  UNL1       -0.5491
     25 C         142.1315  136.6314  155.9320 C.3     1  UNL1        0.0526
     26 C         142.1972  135.1336  155.9816 C.ar    1  UNL1       -0.0178
     27 C         143.1906  134.4558  156.8782 C.ar    1  UNL1       -0.0039
     28 C         143.2563  132.9581  156.9279 C.ar    1  UNL1       -0.0003
     29 C         142.3286  132.1382  156.0810 C.ar    1  UNL1       -0.0000
     30 C         141.3352  132.8160  155.1845 C.ar    1  UNL1       -0.0003
     31 C         141.2695  134.3138  155.1348 C.ar    1  UNL1       -0.0039
@<TRIPOS>UNITY_ATOM_ATTR
22 1
charge -1
@<TRIPOS>BOND
     1    22    23   ar
     2    23    24   ar
     3    23    18    1
     4    18    19    1
     5    19    20    1
     6    20    17    1
     7    17    10    1
     8    10    11   ar
     9    11    12   ar
    10    12    13   ar
    11    13     1    1
    12     1     2   ar
    13     2     3   ar
    14     3     4   ar
    15     4     5   ar
    16     5    25    1
    17    25    26    1
    18    26    27   ar
    19    27    28   ar
    20    28    29   ar
    21    29    30   ar
    22    30    31   ar
    23     5     6   ar
    24     6     7   ar
    25     7     8   ar
    26     8     9   ar
    27    13    14   ar
    28    14    15    1
    29    14    16   ar
    30    20    21    1
    31    21    18    1
    32    16    10   ar
    33     9     1   ar
    34     8     3   ar
    35    31    26   ar
@<TRIPOS>MOLECULE
*****
 31 35 0 0 0
SMALL
GASTEIGER

@<TRIPOS>ATOM
      1 C         139.8726  138.7640  161.7148 C.ar    1  UNL1        0.1475
      2 C         139.0125  138.6993  160.4876 C.ar    1  UNL1        0.0406
      3 C         139.9155  138.6278  159.2920 C.ar    1  UNL1        0.0373
      4 C         139.6295  138.5466  157.8217 C.ar    1  UNL1       -0.0008
      5 C         140.7618  138.4859  156.8398 C.ar    1  UNL1       -0.0176
      6 C         142.1799  138.5063  157.3280 C.ar    1  UNL1       -0.0008
      7 C         142.4659  138.5874  158.7983 C.ar    1  UNL1        0.0372
      8 C         141.3336  138.6482  159.7802 C.ar    1  UNL1        0.1453
      9 O         141.3071  138.7323  161.2776 O.2     1  UNL1       -0.4534
     10 C         138.4067  139.0096  165.9623 C.ar    1  UNL1       -0.0039
     11 C         139.0226  137.7400  165.4537 C.ar    1  UNL1       -0.0027
     12 C         139.5112  137.6581  164.0379 C.ar    1  UNL1        0.0050
     13 C         139.3840  138.8459  163.1307 C.ar    1  UNL1        0.0620
     14 C         138.7681  140.1155  163.6393 C.ar    1  UNL1        0.1427
     15 F         138.6408  141.3033  162.7320 F       1  UNL1       -0.2041
     16 C         138.2794  140.1974  165.0551 C.ar    1  UNL1        0.0268
     17 C         137.9181  139.0915  167.3781 C.3     1  UNL1        0.0992
     18 C         140.0373  140.5171  169.9454 C.3     1  UNL1        0.0684
     19 C         140.2183  140.1541  168.5013 C.3     1  UNL1        0.0793
     20 N         138.7958  139.6820  168.4415 N.3     1  UNL1       -0.2682
     21 C         138.6148  140.0450  169.8856 C.3     1  UNL1        0.0793
     22 O         140.3978  142.2144  171.8791 O.co2   1  UNL1       -0.5491
     23 C         140.9150  141.1076  171.0088 C.2     1  UNL1        0.0527
     24 O         142.3100  140.5913  171.2018 O.co2   1  UNL1       -0.5491
     25 C         140.4759  138.4048  155.3694 C.3     1  UNL1        0.0526
     26 C         139.0902  138.6683  154.8592 C.ar    1  UNL1       -0.0178
     27 C         138.1555  137.5237  154.6016 C.ar    1  UNL1       -0.0039
     28 C         136.7698  137.7872  154.0913 C.ar    1  UNL1       -0.0003
     29 C         136.3187  139.1954  153.8387 C.ar    1  UNL1       -0.0000
     30 C         137.2534  140.3399  154.0964 C.ar    1  UNL1       -0.0003
     31 C         138.6391  140.0764  154.6066 C.ar    1  UNL1       -0.0039
@<TRIPOS>UNITY_ATOM_ATTR
22 1
charge -1
@<TRIPOS>BOND
     1    22    23   ar
     2    23    24   ar
     3    23    18    1
     4    18    19    1
     5    19    20    1
     6    20    17    1
     7    17    10    1
     8    10    11   ar
     9    11    12   ar
    10    12    13   ar
    11    13     1    1
    12     1     2   ar
    13     2     3   ar
    14     3     4   ar
    15     4     5   ar
    16     5    25    1
    17    25    26    1
    18    26    27   ar
    19    27    28   ar
    20    28    29   ar
    21    29    30   ar
    22    30    31   ar
    23     5     6   ar
    24     6     7   ar
    25     7     8   ar
    26     8     9   ar
    27    13    14   ar
    28    14    15    1
    29    14    16   ar
    30    20    21    1
    31    21    18    1
    32    16    10   ar
    33     9     1   ar
    34     8     3   ar
    35    31    26   ar
@<TRIPOS>MOLECULE
*****
 31 35 0 0 0
SMALL
GASTEIGER

@<TRIPOS>ATOM
      1 C         140.5608  138.6770  162.9095 C.ar    1  UNL1        0.1475
      2 C         141.1008  139.5671  163.9894 C.ar    1  UNL1        0.0406
      3 C         140.2261  139.4124  165.1981 C.ar    1  UNL1        0.0373
      4 C         140.2739  140.0418  166.5588 C.ar    1  UNL1       -0.0008
      5 C         139.2412  139.6855  167.5867 C.ar    1  UNL1       -0.0176
      6 C         138.1606  138.6998  167.2538 C.ar    1  UNL1       -0.0008
      7 C         138.1128  138.0705  165.8931 C.ar    1  UNL1        0.0372
      8 C         139.1455  138.4268  164.8653 C.ar    1  UNL1        0.1453
      9 O         139.3524  137.9723  163.4508 O.2     1  UNL1       -0.4534
     10 C         142.2668  138.2040  158.7724 C.ar    1  UNL1       -0.0039
     11 C         143.0280  137.6947  159.9602 C.ar    1  UNL1       -0.0027
     12 C         142.4593  137.8524  161.3393 C.ar    1  UNL1        0.0050
     13 C         141.1295  138.5193  161.5305 C.ar    1  UNL1        0.0620
     14 C         140.3683  139.0286  160.3426 C.ar    1  UNL1        0.1427
     15 F         139.0383  139.6957  160.5337 F       1  UNL1       -0.2041
     16 C         140.9369  138.8710  158.9635 C.ar    1  UNL1        0.0268
     17 C         142.8354  138.0464  157.3933 C.3     1  UNL1        0.0992
     18 C         145.0509  140.5755  156.0482 C.3     1  UNL1        0.0684
     19 C         144.2879  140.4060  157.3285 C.3     1  UNL1        0.0793
     20 N         143.7531  139.0939  156.8362 N.3     1  UNL1       -0.2682
     21 C         144.5162  139.2634  155.5559 C.3     1  UNL1        0.0793
     22 O         147.3211  141.8377  156.1032 O.co2   1  UNL1       -0.5491
     23 C         145.9686  141.6231  155.4911 C.2     1  UNL1        0.0527
     24 O         145.5338  142.4560  154.3219 O.co2   1  UNL1       -0.5491
     25 C         139.2890  140.3149  168.9475 C.3     1  UNL1        0.0526
     26 C         140.4903  141.1107  169.3639 C.ar    1  UNL1       -0.0178
     27 C         140.3911  142.6009  169.5039 C.ar    1  UNL1       -0.0039
     28 C         141.5924  143.3967  169.9203 C.ar    1  UNL1       -0.0003
     29 C         142.8930  142.7024  170.1968 C.ar    1  UNL1       -0.0000
     30 C         142.9922  141.2122  170.0568 C.ar    1  UNL1       -0.0003
     31 C         141.7909  140.4164  169.6404 C.ar    1  UNL1       -0.0039
@<TRIPOS>UNITY_ATOM_ATTR
22 1
charge -1
@<TRIPOS>BOND
     1    22    23   ar
     2    23    24   ar
     3    23    18    1
     4    18    19    1
     5    19    20    1
     6    20    17    1
     7    17    10    1
     8    10    11   ar
     9    11    12   ar
    10    12    13   ar
    11    13     1    1
    12     1     2   ar
    13     2     3   ar
    14     3     4   ar
    15     4     5   ar
    16     5    25    1
    17    25    26    1
    18    26    27   ar
    19    27    28   ar
    20    28    29   ar
    21    29    30   ar
    22    30    31   ar
    23     5     6   ar
    24     6     7   ar
    25     7     8   ar
    26     8     9   ar
    27    13    14   ar
    28    14    15    1
    29    14    16   ar
    30    20    21    1
    31    21    18    1
    32    16    10   ar
    33     9     1   ar
    34     8     3   ar
    35    31    26   ar
@<TRIPOS>MOLECULE
*****
 31 35 0 0 0
SMALL
GASTEIGER

@<TRIPOS>ATOM
      1 C         141.7475  143.8164  160.8636 C.ar    1  UNL1        0.1475
      2 C         141.1264  142.8718  161.8494 C.ar    1  UNL1        0.0406
      3 C         142.0106  142.8176  163.0599 C.ar    1  UNL1        0.0373
      4 C         141.9035  142.0563  164.3479 C.ar    1  UNL1       -0.0008
      5 C         142.9639  142.2061  165.3981 C.ar    1  UNL1       -0.0176
      6 C         144.1315  143.1173  165.1603 C.ar    1  UNL1       -0.0008
      7 C         144.2387  143.8786  163.8724 C.ar    1  UNL1        0.0372
      8 C         143.1782  143.7287  162.8221 C.ar    1  UNL1        0.1453
      9 O         143.0156  144.3460  161.4648 O.2     1  UNL1       -0.4534
     10 C         140.0964  144.8755  156.8136 C.ar    1  UNL1       -0.0039
     11 C         140.3539  145.9539  157.8240 C.ar    1  UNL1       -0.0027
     12 C         140.9042  145.6008  159.1740 C.ar    1  UNL1        0.0050
     13 C         141.1971  144.1695  159.5136 C.ar    1  UNL1        0.0620
     14 C         140.9396  143.0911  158.5032 C.ar    1  UNL1        0.1427
     15 F         141.2325  141.6597  158.8428 F       1  UNL1       -0.2041
     16 C         140.3893  143.4442  157.1532 C.ar    1  UNL1        0.0268
     17 C         139.5460  145.2286  155.4636 C.3     1  UNL1        0.0992
     18 C         139.7156  148.6455  154.2761 C.3     1  UNL1        0.0684
     19 C         140.4468  147.3748  153.9589 C.3     1  UNL1        0.0793
     20 N         139.6162  146.6439  154.9718 N.3     1  UNL1       -0.2682
     21 C         138.8850  147.9146  155.2890 C.3     1  UNL1        0.0793
     22 O         139.3886  150.3855  152.3747 O.co2   1  UNL1       -0.5491
     23 C         139.7858  150.0608  153.7843 C.2     1  UNL1        0.0527
     24 O         140.2532  151.1513  154.7019 O.co2   1  UNL1       -0.5491
     25 C         142.8567  141.4448  166.6861 C.3     1  UNL1        0.0526
     26 C         142.3357  142.1242  167.9178 C.ar    1  UNL1       -0.0178
     27 C         143.2402  142.3397  169.0949 C.ar    1  UNL1       -0.0039
     28 C         142.7192  143.0191  170.3266 C.ar    1  UNL1       -0.0003
     29 C         141.2937  143.4830  170.3811 C.ar    1  UNL1       -0.0000
     30 C         140.3894  143.2676  169.2040 C.ar    1  UNL1       -0.0003
     31 C         140.9104  142.5882  167.9723 C.ar    1  UNL1       -0.0039
@<TRIPOS>UNITY_ATOM_ATTR
22 1
charge -1
@<TRIPOS>BOND
     1    22    23   ar
     2    23    24   ar
     3    23    18    1
     4    18    19    1
     5    19    20    1
     6    20    17    1
     7    17    10    1
     8    10    11   ar
     9    11    12   ar
    10    12    13   ar
    11    13     1    1
    12     1     2   ar
    13     2     3   ar
    14     3     4   ar
    15     4     5   ar
    16     5    25    1
    17    25    26    1
    18    26    27   ar
    19    27    28   ar
    20    28    29   ar
    21    29    30   ar
    22    30    31   ar
    23     5     6   ar
    24     6     7   ar
    25     7     8   ar
    26     8     9   ar
    27    13    14   ar
    28    14    15    1
    29    14    16   ar
    30    20    21    1
    31    21    18    1
    32    16    10   ar
    33     9     1   ar
    34     8     3   ar
    35    31    26   ar
@<TRIPOS>MOLECULE
*****
 31 35 0 0 0
SMALL
GASTEIGER

@<TRIPOS>ATOM
      1 C         140.6379  139.1576  161.5745 C.ar    1  UNL1        0.1475
      2 C         140.3122  138.3127  162.7703 C.ar    1  UNL1        0.0406
      3 C         140.0840  139.2281  163.9365 C.ar    1  UNL1        0.0373
      4 C         139.7320  138.9594  165.3696 C.ar    1  UNL1       -0.0008
      5 C         139.5646  140.1014  166.3276 C.ar    1  UNL1       -0.0176
      6 C         139.7494  141.5121  165.8525 C.ar    1  UNL1       -0.0008
      7 C         140.1014  141.7808  164.4194 C.ar    1  UNL1        0.0372
      8 C         140.2688  140.6388  163.4614 C.ar    1  UNL1        0.1453
      9 O         140.6110  140.5952  162.0016 O.2     1  UNL1       -0.4534
     10 C         141.5375  137.6450  157.4329 C.ar    1  UNL1       -0.0039
     11 C         142.6137  137.6554  158.4777 C.ar    1  UNL1       -0.0027
     12 C         142.3138  138.1596  159.8583 C.ar    1  UNL1        0.0050
     13 C         140.9378  138.6534  160.1940 C.ar    1  UNL1        0.0620
     14 C         139.8616  138.6430  159.1491 C.ar    1  UNL1        0.1427
     15 F         138.4855  139.1367  159.4847 F       1  UNL1       -0.2041
     16 C         140.1615  138.1388  157.7686 C.ar    1  UNL1        0.0268
     17 C         141.8374  137.1408  156.0524 C.3     1  UNL1        0.0992
     18 C         143.3245  133.8696  155.6027 C.3     1  UNL1        0.0684
     19 C         143.8560  135.2585  155.7991 C.3     1  UNL1        0.0793
     20 N         142.4533  135.7859  155.8661 N.3     1  UNL1       -0.2682
     21 C         141.9218  134.3970  155.6697 C.3     1  UNL1        0.0793
     22 O         143.5383  131.6620  154.2497 O.co2   1  UNL1       -0.5491
     23 C         143.9404  132.5147  155.4164 C.2     1  UNL1        0.0527
     24 O         144.9584  132.0124  156.3968 O.co2   1  UNL1       -0.5491
     25 C         139.2126  139.8327  167.7607 C.3     1  UNL1        0.0526
     26 C         140.1502  140.2507  168.8544 C.ar    1  UNL1       -0.0178
     27 C         141.5633  139.7475  168.8639 C.ar    1  UNL1       -0.0039
     28 C         142.5009  140.1654  169.9576 C.ar    1  UNL1       -0.0003
     29 C         142.0254  141.0866  171.0418 C.ar    1  UNL1       -0.0000
     30 C         140.6124  141.5898  171.0323 C.ar    1  UNL1       -0.0003
     31 C         139.6748  141.1718  169.9386 C.ar    1  UNL1       -0.0039
@<TRIPOS>UNITY_ATOM_ATTR
22 1
charge -1
@<TRIPOS>BOND
     1    22    23   ar
     2    23    24   ar
     3    23    18    1
     4    18    19    1
     5    19    20    1
     6    20    17    1
     7    17    10    1
     8    10    11   ar
     9    11    12   ar
    10    12    13   ar
    11    13     1    1
    12     1     2   ar
    13     2     3   ar
    14     3     4   ar
    15     4     5   ar
    16     5    25    1
    17    25    26    1
    18    26    27   ar
    19    27    28   ar
    20    28    29   ar
    21    29    30   ar
    22    30    31   ar
    23     5     6   ar
    24     6     7   ar
    25     7     8   ar
    26     8     9   ar
    27    13    14   ar
    28    14    15    1
    29    14    16   ar
    30    20    21    1
    31    21    18    1
    32    16    10   ar
    33     9     1   ar
    34     8     3   ar
    35    31    26   ar
