@<TRIPOS>MOLECULE
*****
 40 45 0 0 0
SMALL
GASTEIGER

@<TRIPOS>ATOM
      1 C         142.8113  135.8048  157.6849 C.ar    1  UNL1        0.2400
      2 N         142.2250  135.3508  156.3810 N.ar    1  UNL1       -0.2090
      3 C         141.4888  136.3252  155.5101 C.ar    1  UNL1        0.1036
      4 C         141.1574  137.8249  155.6447 C.ar    1  UNL1        0.0383
      5 C         141.9354  137.2810  156.8061 C.ar    1  UNL1        0.0236
      6 C         142.6614  137.2331  158.1179 C.ar    1  UNL1        0.1179
      7 N         143.2476  137.6870  159.4218 N.pl3   1  UNL1       -0.2104
      8 S         143.6236  138.5881  160.5606 S.O2    1  UNL1        0.0737
      9 O         144.3771  138.3712  161.8393 O.2     1  UNL1       -0.1499
     10 O         144.1003  137.1768  160.7372 O.2     1  UNL1       -0.1499
     11 C         143.7439  139.8275  161.3969 C.ar    1  UNL1        0.1253
     12 C         144.4698  139.7796  162.7086 C.ar    1  UNL1        0.0202
     13 C         144.5900  141.0190  163.5449 C.ar    1  UNL1        0.0015
     14 C         143.9843  142.3063  163.0694 C.ar    1  UNL1        0.0046
     15 C         143.2584  142.3542  161.7577 C.ar    1  UNL1        0.0547
     16 C         143.1382  141.1148  160.9214 C.ar    1  UNL1        0.0247
     17 C         142.5862  143.9881  161.3317 C.2     1  UNL1        0.2461
     18 O         142.9621  144.8891  162.4705 O.2     1  UNL1       -0.2701
     19 N         141.8500  144.9623  160.4607 N.am    1  UNL1       -0.2969
     20 C         141.0720  145.5063  159.2993 C.3     1  UNL1        0.1181
     21 C         140.3461  145.5542  157.9875 C.ar    1  UNL1        0.0166
     22 C         139.6244  146.6780  157.2174 C.ar    1  UNL1        0.0962
     23 N         138.8984  146.7259  155.9056 N.ar    1  UNL1       -0.2426
     24 C         138.7782  145.4865  155.0693 C.ar    1  UNL1        0.0989
     25 C         139.3838  144.1992  155.5448 C.ar    1  UNL1        0.0205
     26 C         139.7598  145.1002  156.6836 C.ar    1  UNL1        0.0005
     27 C         139.2636  142.9598  154.7086 C.ar    1  UNL1        0.0222
     28 C         138.5273  143.9342  153.8375 C.ar    1  UNL1        0.0222
     29 C         137.9411  143.4802  152.5336 C.ar    1  UNL1        0.0989
     30 N         138.0910  142.0519  152.1007 N.ar    1  UNL1       -0.2423
     31 C         138.8272  141.0775  152.9717 C.ar    1  UNL1        0.0989
     32 C         139.0867  139.4519  152.6423 C.ar    1  UNL1        0.0222
     33 C         139.8083  138.4205  153.4581 C.ar    1  UNL1        0.0207
     34 C         140.4212  138.7993  154.7738 C.ar    1  UNL1        0.0829
     35 N         139.8156  140.0865  154.2983 N.ar    1  UNL1       -0.2438
     36 C         139.4135  141.5314  154.2756 C.ar    1  UNL1        0.0989
     37 H         143.6452  136.8422  159.7339 H       1  UNL1        0.1739
     38 H         141.9289  145.7758  161.0096 H       1  UNL1        0.1501
     39 C         144.1000  133.5665  157.9667 C.3     1  UNL1        0.2543
     40 O         143.5475  134.8304  158.5559 O.3     1  UNL1       -0.4553
@<TRIPOS>BOND
     1    39    40    1
     2    40     1    1
     3     1     2   ar
     4     2     3   ar
     5     3     4   ar
     6     4     5   ar
     7     5     6   ar
     8     6     7    1
     9     7     8    1
    10     8     9    2
    11     8    10    2
    12     8    11    1
    13    11    12   ar
    14    12    13   ar
    15    13    14   ar
    16    14    15   ar
    17    15    16   ar
    18    15    17    1
    19    17    18    2
    20    17    19   am
    21    19    20    1
    22    20    21    1
    23    21    22   ar
    24    22    23   ar
    25    23    24   ar
    26    24    25   ar
    27    25    26   ar
    28    25    27    1
    29    27    28   ar
    30    28    29   ar
    31    29    30   ar
    32    30    31   ar
    33    31    32   ar
    34    32    33   ar
    35    33    34   ar
    36    34    35   ar
    37    35    36   ar
    38     6     1   ar
    39    16    11   ar
    40    26    21   ar
    41    36    27   ar
    42    34     4    1
    43    36    31   ar
    44     7    37    1
    45    19    38    1
@<TRIPOS>MOLECULE
*****
 40 45 0 0 0
SMALL
GASTEIGER

@<TRIPOS>ATOM
      1 C         140.2020  145.6253  154.9511 C.ar    1  UNL1        0.2400
      2 N         139.8154  146.7552  155.8588 N.ar    1  UNL1       -0.2090
      3 C         139.8568  146.5697  157.3466 C.ar    1  UNL1        0.1036
      4 C         140.2374  145.3838  158.2555 C.ar    1  UNL1        0.0383
      5 C         140.3594  145.0753  156.7926 C.ar    1  UNL1        0.0236
      6 C         140.6301  144.3099  155.5313 C.ar    1  UNL1        0.1179
      7 N         141.0167  143.1801  154.6236 N.pl3   1  UNL1       -0.2104
      8 S         141.4728  141.8220  154.1791 S.O2    1  UNL1        0.0737
      9 O         141.6967  141.2012  152.8321 O.2     1  UNL1       -0.1499
     10 O         141.1797  142.7527  153.0398 O.2     1  UNL1       -0.1499
     11 C         141.9432  140.3995  154.2512 C.ar    1  UNL1        0.1253
     12 C         142.2138  139.6341  152.9899 C.ar    1  UNL1        0.0202
     13 C         142.6842  138.2117  153.0621 C.ar    1  UNL1        0.0015
     14 C         142.8840  137.5545  154.3956 C.ar    1  UNL1        0.0046
     15 C         142.6133  138.3199  155.6569 C.ar    1  UNL1        0.0547
     16 C         142.1429  139.7423  155.5847 C.ar    1  UNL1        0.0247
     17 C         142.9050  137.3775  157.1832 C.2     1  UNL1        0.2461
     18 O         143.3610  136.0194  156.7387 O.2     1  UNL1       -0.2701
     19 N         142.9463  137.1920  158.6711 N.am    1  UNL1       -0.2969
     20 C         142.8244  137.5005  160.1340 C.3     1  UNL1        0.1181
     21 C         142.5537  138.2659  161.3953 C.ar    1  UNL1        0.0166
     22 C         142.6518  137.9088  162.8919 C.ar    1  UNL1        0.0962
     23 N         142.3812  138.6742  164.1533 N.ar    1  UNL1       -0.2426
     24 C         141.9108  140.0967  164.0811 C.ar    1  UNL1        0.0989
     25 C         141.7110  140.7539  162.7476 C.ar    1  UNL1        0.0205
     26 C         142.1671  139.3958  162.3030 C.ar    1  UNL1        0.0005
     27 C         141.2406  142.1763  162.6754 C.ar    1  UNL1        0.0222
     28 C         141.2820  141.9909  164.1634 C.ar    1  UNL1        0.0222
     29 C         140.8954  143.1208  165.0710 C.ar    1  UNL1        0.0989
     30 N         140.4673  144.4361  164.4909 N.ar    1  UNL1       -0.2423
     31 C         140.4260  144.6215  163.0029 C.ar    1  UNL1        0.0989
     32 C         139.9739  146.0189  162.1896 C.ar    1  UNL1        0.0222
     33 C         139.9073  146.2800  160.7139 C.ar    1  UNL1        0.0207
     34 C         140.2788  145.1983  159.7434 C.ar    1  UNL1        0.0829
     35 N         140.4786  144.5412  161.0769 N.ar    1  UNL1       -0.2438
     36 C         140.8126  143.4917  162.0951 C.ar    1  UNL1        0.0989
     37 H         140.8856  143.6114  153.7484 H       1  UNL1        0.1739
     38 H         143.2551  136.2584  158.7185 H       1  UNL1        0.1501
     39 C         141.2894  146.5072  152.7625 C.3     1  UNL1        0.2543
     40 O         140.1606  145.8108  153.4632 O.3     1  UNL1       -0.4553
@<TRIPOS>BOND
     1    39    40    1
     2    40     1    1
     3     1     2   ar
     4     2     3   ar
     5     3     4   ar
     6     4     5   ar
     7     5     6   ar
     8     6     7    1
     9     7     8    1
    10     8     9    2
    11     8    10    2
    12     8    11    1
    13    11    12   ar
    14    12    13   ar
    15    13    14   ar
    16    14    15   ar
    17    15    16   ar
    18    15    17    1
    19    17    18    2
    20    17    19   am
    21    19    20    1
    22    20    21    1
    23    21    22   ar
    24    22    23   ar
    25    23    24   ar
    26    24    25   ar
    27    25    26   ar
    28    25    27    1
    29    27    28   ar
    30    28    29   ar
    31    29    30   ar
    32    30    31   ar
    33    31    32   ar
    34    32    33   ar
    35    33    34   ar
    36    34    35   ar
    37    35    36   ar
    38     6     1   ar
    39    16    11   ar
    40    26    21   ar
    41    36    27   ar
    42    34     4    1
    43    36    31   ar
    44     7    37    1
    45    19    38    1
@<TRIPOS>MOLECULE
*****
 40 45 0 0 0
SMALL
GASTEIGER

@<TRIPOS>ATOM
      1 C         142.8202  136.9073  155.5993 C.ar    1  UNL1        0.2400
      2 N         143.0704  135.9822  156.7533 N.ar    1  UNL1       -0.2090
      3 C         142.8974  136.4738  158.1598 C.ar    1  UNL1        0.1036
      4 C         142.4849  137.8311  158.7637 C.ar    1  UNL1        0.0383
      5 C         142.5145  137.8316  157.2639 C.ar    1  UNL1        0.0236
      6 C         142.3971  138.3241  155.8520 C.ar    1  UNL1        0.1179
      7 N         142.1469  139.2492  154.6981 N.pl3   1  UNL1       -0.2104
      8 S         141.7941  140.4954  153.9414 S.O2    1  UNL1        0.0737
      9 O         141.7249  140.8277  152.4803 O.2     1  UNL1       -0.1499
     10 O         142.1522  139.3417  153.0521 O.2     1  UNL1       -0.1499
     11 C         141.3812  141.9124  153.6732 C.ar    1  UNL1        0.1253
     12 C         141.2638  142.4049  152.2612 C.ar    1  UNL1        0.0202
     13 C         140.8509  143.8217  151.9931 C.ar    1  UNL1        0.0015
     14 C         140.5555  144.7461  153.1368 C.ar    1  UNL1        0.0046
     15 C         140.6729  144.2536  154.5488 C.ar    1  UNL1        0.0547
     16 C         141.0857  142.8367  154.8169 C.ar    1  UNL1        0.0247
     17 C         140.2803  145.4992  155.8126 C.2     1  UNL1        0.2461
     18 O         139.9274  146.7453  155.0559 O.2     1  UNL1       -0.2701
     19 N         140.1073  145.9907  157.2192 N.am    1  UNL1       -0.2969
     20 C         140.0778  145.9903  158.7189 C.3     1  UNL1        0.1181
     21 C         140.1952  145.4977  160.1309 C.ar    1  UNL1        0.0166
     22 C         139.9724  146.1602  161.5051 C.ar    1  UNL1        0.0962
     23 N         140.0898  145.6677  162.9171 N.ar    1  UNL1       -0.2426
     24 C         140.5027  144.2508  163.1852 C.ar    1  UNL1        0.0989
     25 C         140.7982  143.3264  162.0415 C.ar    1  UNL1        0.0205
     26 C         140.4454  144.5726  161.2848 C.ar    1  UNL1        0.0005
     27 C         141.2110  141.9095  162.3096 C.ar    1  UNL1        0.0222
     28 C         141.0381  142.4011  163.7163 C.ar    1  UNL1        0.0222
     29 C         141.2883  141.4759  164.8701 C.ar    1  UNL1        0.0989
     30 N         141.7114  140.0592  164.6176 N.ar    1  UNL1       -0.2423
     31 C         141.8843  139.5676  163.2109 C.ar    1  UNL1        0.0989
     32 C         142.3497  138.0217  162.7505 C.ar    1  UNL1        0.0222
     33 C         142.5433  137.4581  161.3739 C.ar    1  UNL1        0.0207
     34 C         142.3120  138.3227  160.1702 C.ar    1  UNL1        0.0829
     35 N         142.0165  139.2471  161.3140 N.ar    1  UNL1       -0.2438
     36 C         141.6342  140.4928  162.0570 C.ar    1  UNL1        0.0989
     37 H         142.3408  138.6425  153.9474 H       1  UNL1        0.1739
     38 H         139.8364  146.9206  157.0432 H       1  UNL1        0.1501
     39 C         141.8791  135.6745  153.5150 C.3     1  UNL1        0.2543
     40 O         142.9931  136.4158  154.1928 O.3     1  UNL1       -0.4553
@<TRIPOS>BOND
     1    39    40    1
     2    40     1    1
     3     1     2   ar
     4     2     3   ar
     5     3     4   ar
     6     4     5   ar
     7     5     6   ar
     8     6     7    1
     9     7     8    1
    10     8     9    2
    11     8    10    2
    12     8    11    1
    13    11    12   ar
    14    12    13   ar
    15    13    14   ar
    16    14    15   ar
    17    15    16   ar
    18    15    17    1
    19    17    18    2
    20    17    19   am
    21    19    20    1
    22    20    21    1
    23    21    22   ar
    24    22    23   ar
    25    23    24   ar
    26    24    25   ar
    27    25    26   ar
    28    25    27    1
    29    27    28   ar
    30    28    29   ar
    31    29    30   ar
    32    30    31   ar
    33    31    32   ar
    34    32    33   ar
    35    33    34   ar
    36    34    35   ar
    37    35    36   ar
    38     6     1   ar
    39    16    11   ar
    40    26    21   ar
    41    36    27   ar
    42    34     4    1
    43    36    31   ar
    44     7    37    1
    45    19    38    1
@<TRIPOS>MOLECULE
*****
 40 45 0 0 0
SMALL
GASTEIGER

@<TRIPOS>ATOM
      1 C         137.9787  143.7351  153.7855 C.ar    1  UNL1        0.2400
      2 N         137.9299  145.0390  154.5253 N.ar    1  UNL1       -0.2090
      3 C         138.5887  145.1653  155.8669 C.ar    1  UNL1        0.1036
      4 C         139.3801  144.1838  156.7543 C.ar    1  UNL1        0.0383
      5 C         138.9104  143.5750  155.4663 C.ar    1  UNL1        0.0236
      6 C         138.6864  142.5574  154.3874 C.ar    1  UNL1        0.1179
      7 N         138.7352  141.2534  153.6476 N.pl3   1  UNL1       -0.2104
      8 S         139.0509  139.8205  153.3362 S.O2    1  UNL1        0.0737
      9 O         138.7405  138.9276  152.1716 O.2     1  UNL1       -0.1499
     10 O         138.2604  140.5023  152.2590 O.2     1  UNL1       -0.1499
     11 C         139.5955  138.4313  153.4907 C.ar    1  UNL1        0.1253
     12 C         139.3715  137.4136  152.4118 C.ar    1  UNL1        0.0202
     13 C         139.9160  136.0246  152.5664 C.ar    1  UNL1        0.0015
     14 C         140.6845  135.6532  153.7998 C.ar    1  UNL1        0.0046
     15 C         140.9085  136.6709  154.8787 C.ar    1  UNL1        0.0547
     16 C         140.3640  138.0599  154.7242 C.ar    1  UNL1        0.0247
     17 C         141.8571  136.0580  156.3026 C.2     1  UNL1        0.2461
     18 O         142.1729  134.6250  155.9912 O.2     1  UNL1       -0.2701
     19 N         142.5160  136.1843  157.6442 N.am    1  UNL1       -0.2969
     20 C         142.9857  136.7929  158.9321 C.3     1  UNL1        0.1181
     21 C         143.2097  137.8107  160.0111 C.ar    1  UNL1        0.0166
     22 C         143.9343  137.7694  161.3713 C.ar    1  UNL1        0.0962
     23 N         144.1582  138.7872  162.4503 N.ar    1  UNL1       -0.2426
     24 C         143.6137  140.1762  162.2957 C.ar    1  UNL1        0.0989
     25 C         142.8452  140.5476  161.0623 C.ar    1  UNL1        0.0205
     26 C         143.1609  139.1147  160.7509 C.ar    1  UNL1        0.0005
     27 C         142.3007  141.9367  160.9077 C.ar    1  UNL1        0.0222
     28 C         142.9596  142.0630  162.2494 C.ar    1  UNL1        0.0222
     29 C         142.9107  143.3670  162.9891 C.ar    1  UNL1        0.0989
     30 N         142.2031  144.5447  162.3873 N.ar    1  UNL1       -0.2423
     31 C         141.5442  144.4184  161.0456 C.ar    1  UNL1        0.0989
     32 C         140.7141  145.6285  160.2303 C.ar    1  UNL1        0.0222
     33 C         140.0327  145.5795  158.8949 C.ar    1  UNL1        0.0207
     34 C         140.0390  144.3100  158.0958 C.ar    1  UNL1        0.0829
     35 N         140.8075  143.9386  159.3293 N.ar    1  UNL1       -0.2438
     36 C         141.5930  143.1144  160.3058 C.ar    1  UNL1        0.0989
     37 H         138.2308  141.4972  152.8380 H       1  UNL1        0.1739
     38 H         142.8734  135.2726  157.7456 H       1  UNL1        0.1501
     39 C         135.8444  143.3540  152.3539 C.3     1  UNL1        0.2543
     40 O         137.3198  143.6088  152.4439 O.3     1  UNL1       -0.4553
@<TRIPOS>BOND
     1    39    40    1
     2    40     1    1
     3     1     2   ar
     4     2     3   ar
     5     3     4   ar
     6     4     5   ar
     7     5     6   ar
     8     6     7    1
     9     7     8    1
    10     8     9    2
    11     8    10    2
    12     8    11    1
    13    11    12   ar
    14    12    13   ar
    15    13    14   ar
    16    14    15   ar
    17    15    16   ar
    18    15    17    1
    19    17    18    2
    20    17    19   am
    21    19    20    1
    22    20    21    1
    23    21    22   ar
    24    22    23   ar
    25    23    24   ar
    26    24    25   ar
    27    25    26   ar
    28    25    27    1
    29    27    28   ar
    30    28    29   ar
    31    29    30   ar
    32    30    31   ar
    33    31    32   ar
    34    32    33   ar
    35    33    34   ar
    36    34    35   ar
    37    35    36   ar
    38     6     1   ar
    39    16    11   ar
    40    26    21   ar
    41    36    27   ar
    42    34     4    1
    43    36    31   ar
    44     7    37    1
    45    19    38    1
@<TRIPOS>MOLECULE
*****
 40 45 0 0 0
SMALL
GASTEIGER

@<TRIPOS>ATOM
      1 C         139.9214  144.1447  154.3323 C.ar    1  UNL1        0.2400
      2 N         139.5625  145.4360  155.0060 N.ar    1  UNL1       -0.2090
      3 C         139.6905  145.5659  156.4948 C.ar    1  UNL1        0.1036
      4 C         140.1456  144.5996  157.6067 C.ar    1  UNL1        0.0383
      5 C         140.1924  143.9931  156.2355 C.ar    1  UNL1        0.0236
      6 C         140.4083  142.9835  155.1474 C.ar    1  UNL1        0.1179
      7 N         140.7672  141.6922  154.4737 N.pl3   1  UNL1       -0.2104
      8 S         141.2258  140.2752  154.2956 S.O2    1  UNL1        0.0737
      9 O         141.3873  139.3885  153.0966 O.2     1  UNL1       -0.1499
     10 O         140.8506  140.9447  153.0068 O.2     1  UNL1       -0.1499
     11 C         141.7289  138.9033  154.6345 C.ar    1  UNL1        0.1253
     12 C         141.9448  137.8936  153.5465 C.ar    1  UNL1        0.0202
     13 C         142.4478  136.5218  153.8855 C.ar    1  UNL1        0.0015
     14 C         142.7350  136.1596  155.3125 C.ar    1  UNL1        0.0046
     15 C         142.5192  137.1693  156.4005 C.ar    1  UNL1        0.0547
     16 C         142.0161  138.5412  156.0616 C.ar    1  UNL1        0.0247
     17 C         142.9148  136.5693  158.0697 C.2     1  UNL1        0.2461
     18 O         143.3734  135.1523  157.8916 O.2     1  UNL1       -0.2701
     19 N         143.0427  136.6994  159.5586 N.am    1  UNL1       -0.2969
     20 C         142.9959  137.3057  160.9298 C.3     1  UNL1        0.1181
     21 C         142.7800  138.3155  162.0178 C.ar    1  UNL1        0.0166
     22 C         142.9686  138.2799  163.5476 C.ar    1  UNL1        0.0962
     23 N         142.7527  139.2897  164.6356 N.ar    1  UNL1       -0.2426
     24 C         142.2497  140.6616  164.2967 C.ar    1  UNL1        0.0989
     25 C         141.9625  141.0237  162.8697 C.ar    1  UNL1        0.0205
     26 C         142.4211  139.6067  162.6916 C.ar    1  UNL1        0.0005
     27 C         141.4594  142.3955  162.5307 C.ar    1  UNL1        0.0222
     28 C         141.5873  142.5256  164.0197 C.ar    1  UNL1        0.0222
     29 C         141.2284  143.8168  164.6933 C.ar    1  UNL1        0.0989
     30 N         140.7416  144.9781  163.8782 N.ar    1  UNL1       -0.2423
     31 C         140.6137  144.8480  162.3893 C.ar    1  UNL1        0.0989
     32 C         140.0882  146.0406  161.3309 C.ar    1  UNL1        0.0222
     33 C         139.9342  145.9869  159.8398 C.ar    1  UNL1        0.0207
     34 C         140.2735  144.7295  159.0955 C.ar    1  UNL1        0.0829
     35 N         140.5607  144.3674  160.5225 N.ar    1  UNL1       -0.2438
     36 C         140.9726  143.5568  161.7155 C.ar    1  UNL1        0.0989
     37 H         140.5787  141.9299  153.5371 H       1  UNL1        0.1739
     38 H         143.3729  135.7990  159.7811 H       1  UNL1        0.1501
     39 C         138.5287  143.4760  152.2435 C.3     1  UNL1        0.2543
     40 O         139.7935  144.0148  152.8434 O.3     1  UNL1       -0.4553
@<TRIPOS>BOND
     1    39    40    1
     2    40     1    1
     3     1     2   ar
     4     2     3   ar
     5     3     4   ar
     6     4     5   ar
     7     5     6   ar
     8     6     7    1
     9     7     8    1
    10     8     9    2
    11     8    10    2
    12     8    11    1
    13    11    12   ar
    14    12    13   ar
    15    13    14   ar
    16    14    15   ar
    17    15    16   ar
    18    15    17    1
    19    17    18    2
    20    17    19   am
    21    19    20    1
    22    20    21    1
    23    21    22   ar
    24    22    23   ar
    25    23    24   ar
    26    24    25   ar
    27    25    26   ar
    28    25    27    1
    29    27    28   ar
    30    28    29   ar
    31    29    30   ar
    32    30    31   ar
    33    31    32   ar
    34    32    33   ar
    35    33    34   ar
    36    34    35   ar
    37    35    36   ar
    38     6     1   ar
    39    16    11   ar
    40    26    21   ar
    41    36    27   ar
    42    34     4    1
    43    36    31   ar
    44     7    37    1
    45    19    38    1
@<TRIPOS>MOLECULE
*****
 40 45 0 0 0
SMALL
GASTEIGER

@<TRIPOS>ATOM
      1 C         143.1116  143.3678  161.7965 C.ar    1  UNL1        0.2400
      2 N         143.7750  142.2639  162.5655 N.ar    1  UNL1       -0.2090
      3 C         143.8122  140.8744  162.0017 C.ar    1  UNL1        0.1036
      4 C         143.2820  140.2467  160.6971 C.ar    1  UNL1        0.0383
      5 C         142.9925  141.7140  160.8118 C.ar    1  UNL1        0.0236
      6 C         142.4854  143.0821  160.4637 C.ar    1  UNL1        0.1179
      7 N         141.8220  144.1860  159.6947 N.pl3   1  UNL1       -0.2104
      8 S         141.0823  144.8925  158.5975 S.O2    1  UNL1        0.0737
      9 O         140.6421  146.3130  158.4017 O.2     1  UNL1       -0.1499
     10 O         141.4604  145.7939  159.7353 O.2     1  UNL1       -0.1499
     11 C         140.3555  145.1164  157.3046 C.ar    1  UNL1        0.1253
     12 C         139.8485  146.4845  156.9564 C.ar    1  UNL1        0.0202
     13 C         139.1217  146.7084  155.6635 C.ar    1  UNL1        0.0015
     14 C         138.9020  145.5642  154.7188 C.ar    1  UNL1        0.0046
     15 C         139.4091  144.1962  155.0669 C.ar    1  UNL1        0.0547
     16 C         140.1358  143.9723  156.3598 C.ar    1  UNL1        0.0247
     17 C         139.0595  142.9258  153.8152 C.2     1  UNL1        0.2461
     18 O         138.3198  143.6323  152.7180 O.2     1  UNL1       -0.2701
     19 N         139.0967  141.5363  153.2515 N.am    1  UNL1       -0.2969
     20 C         139.3863  140.0690  153.1367 C.3     1  UNL1        0.1181
     21 C         139.8934  138.7008  153.4849 C.ar    1  UNL1        0.0166
     22 C         139.8429  137.3383  152.7652 C.ar    1  UNL1        0.0962
     23 N         140.3500  135.9702  153.1134 N.ar    1  UNL1       -0.2426
     24 C         141.0767  135.7463  154.4063 C.ar    1  UNL1        0.0989
     25 C         141.2964  136.8905  155.3510 C.ar    1  UNL1        0.0205
     26 C         140.5568  137.5970  154.2539 C.ar    1  UNL1        0.0005
     27 C         142.0232  136.6666  156.6439 C.ar    1  UNL1        0.0222
     28 C         142.0604  135.2770  156.0802 C.ar    1  UNL1        0.0222
     29 C         142.7238  134.1731  156.8493 C.ar    1  UNL1        0.0989
     30 N         143.3500  134.4587  158.1820 N.ar    1  UNL1       -0.2423
     31 C         143.3128  135.8484  158.7457 C.ar    1  UNL1        0.0989
     32 C         143.9605  136.3408  160.2142 C.ar    1  UNL1        0.0222
     33 C         143.9634  137.7029  160.8424 C.ar    1  UNL1        0.0207
     34 C         143.3192  138.8572  160.1333 C.ar    1  UNL1        0.0829
     35 N         143.0995  137.7130  159.1886 N.ar    1  UNL1       -0.2438
     36 C         142.6494  136.9523  157.9767 C.ar    1  UNL1        0.0989
     37 H         141.9662  144.9370  160.3148 H       1  UNL1        0.1739
     38 H         138.6197  141.6832  152.4029 H       1  UNL1        0.1501
     39 C         142.0292  145.1295  163.3696 C.3     1  UNL1        0.2543
     40 O         143.0745  144.7573  162.3602 O.3     1  UNL1       -0.4553
@<TRIPOS>BOND
     1    39    40    1
     2    40     1    1
     3     1     2   ar
     4     2     3   ar
     5     3     4   ar
     6     4     5   ar
     7     5     6   ar
     8     6     7    1
     9     7     8    1
    10     8     9    2
    11     8    10    2
    12     8    11    1
    13    11    12   ar
    14    12    13   ar
    15    13    14   ar
    16    14    15   ar
    17    15    16   ar
    18    15    17    1
    19    17    18    2
    20    17    19   am
    21    19    20    1
    22    20    21    1
    23    21    22   ar
    24    22    23   ar
    25    23    24   ar
    26    24    25   ar
    27    25    26   ar
    28    25    27    1
    29    27    28   ar
    30    28    29   ar
    31    29    30   ar
    32    30    31   ar
    33    31    32   ar
    34    32    33   ar
    35    33    34   ar
    36    34    35   ar
    37    35    36   ar
    38     6     1   ar
    39    16    11   ar
    40    26    21   ar
    41    36    27   ar
    42    34     4    1
    43    36    31   ar
    44     7    37    1
    45    19    38    1
@<TRIPOS>MOLECULE
*****
 40 45 0 0 0
SMALL
GASTEIGER

@<TRIPOS>ATOM
      1 C         143.6134  139.9694  161.8158 C.ar    1  UNL1        0.2400
      2 N         143.5020  141.3572  162.3740 N.ar    1  UNL1       -0.2090
      3 C         142.8142  142.4306  161.5835 C.ar    1  UNL1        0.1036
      4 C         142.1282  142.4537  160.2029 C.ar    1  UNL1        0.0383
      5 C         142.6827  141.1089  160.5692 C.ar    1  UNL1        0.0236
      6 C         143.0370  139.6550  160.4671 C.ar    1  UNL1        0.1179
      7 N         143.1483  138.2672  159.9090 N.pl3   1  UNL1       -0.2104
      8 S         143.0034  137.1129  158.9620 S.O2    1  UNL1        0.0737
      9 O         143.4304  135.6761  159.0175 O.2     1  UNL1       -0.1499
     10 O         143.7255  136.7562  160.2274 O.2     1  UNL1       -0.1499
     11 C         142.6195  136.3314  157.7405 C.ar    1  UNL1        0.1253
     12 C         142.9738  134.8774  157.6384 C.ar    1  UNL1        0.0202
     13 C         142.5900  134.0960  156.4170 C.ar    1  UNL1        0.0015
     14 C         141.8519  134.7685  155.2976 C.ar    1  UNL1        0.0046
     15 C         141.4976  136.2225  155.3997 C.ar    1  UNL1        0.0547
     16 C         141.8814  137.0039  156.6212 C.ar    1  UNL1        0.0247
     17 C         140.6057  136.8800  153.9593 C.2     1  UNL1        0.2461
     18 O         140.4607  135.7258  153.0123 O.2     1  UNL1       -0.2701
     19 N         139.9179  137.9534  153.1689 N.am    1  UNL1       -0.2969
     20 C         139.3635  139.2981  152.8025 C.3     1  UNL1        0.1181
     21 C         139.0092  140.7522  152.9047 C.ar    1  UNL1        0.0166
     22 C         138.2751  141.7312  151.9668 C.ar    1  UNL1        0.0962
     23 N         137.9209  143.1853  152.0690 N.ar    1  UNL1       -0.2426
     24 C         138.3047  143.9667  153.2904 C.ar    1  UNL1        0.0989
     25 C         139.0428  143.2942  154.4098 C.ar    1  UNL1        0.0205
     26 C         138.8978  142.1400  153.4628 C.ar    1  UNL1        0.0005
     27 C         139.4266  144.0757  155.6312 C.ar    1  UNL1        0.0222
     28 C         138.7388  145.1491  154.8407 C.ar    1  UNL1        0.0222
     29 C         138.6275  146.5369  155.3989 C.ar    1  UNL1        0.0989
     30 N         139.2038  146.8514  156.7476 N.ar    1  UNL1       -0.2423
     31 C         139.8916  145.7779  157.5381 C.ar    1  UNL1        0.0989
     32 C         140.5889  145.9554  159.0549 C.ar    1  UNL1        0.0222
     33 C         141.2900  144.9364  159.9034 C.ar    1  UNL1        0.0207
     34 C         141.4405  143.5271  159.4124 C.ar    1  UNL1        0.0829
     35 N         140.7024  144.1996  158.2931 N.ar    1  UNL1       -0.2438
     36 C         140.0030  144.3901  156.9799 C.ar    1  UNL1        0.0989
     37 H         143.6328  137.8258  160.6436 H       1  UNL1        0.1739
     38 H         139.6660  137.4405  152.3672 H       1  UNL1        0.1501
     39 C         144.6867  139.1465  164.0341 C.3     1  UNL1        0.2543
     40 O         144.3011  138.8961  162.6063 O.3     1  UNL1       -0.4553
@<TRIPOS>BOND
     1    39    40    1
     2    40     1    1
     3     1     2   ar
     4     2     3   ar
     5     3     4   ar
     6     4     5   ar
     7     5     6   ar
     8     6     7    1
     9     7     8    1
    10     8     9    2
    11     8    10    2
    12     8    11    1
    13    11    12   ar
    14    12    13   ar
    15    13    14   ar
    16    14    15   ar
    17    15    16   ar
    18    15    17    1
    19    17    18    2
    20    17    19   am
    21    19    20    1
    22    20    21    1
    23    21    22   ar
    24    22    23   ar
    25    23    24   ar
    26    24    25   ar
    27    25    26   ar
    28    25    27    1
    29    27    28   ar
    30    28    29   ar
    31    29    30   ar
    32    30    31   ar
    33    31    32   ar
    34    32    33   ar
    35    33    34   ar
    36    34    35   ar
    37    35    36   ar
    38     6     1   ar
    39    16    11   ar
    40    26    21   ar
    41    36    27   ar
    42    34     4    1
    43    36    31   ar
    44     7    37    1
    45    19    38    1
@<TRIPOS>MOLECULE
*****
 40 45 0 0 0
SMALL
GASTEIGER

@<TRIPOS>ATOM
      1 C         143.6820  141.5205  161.6747 C.ar    1  UNL1        0.2400
      2 N         144.2509  140.1926  162.0784 N.ar    1  UNL1       -0.2090
      3 C         144.0306  138.9877  161.2126 C.ar    1  UNL1        0.1036
      4 C         143.2892  138.7633  159.8795 C.ar    1  UNL1        0.0383
      5 C         143.2280  140.1820  160.3627 C.ar    1  UNL1        0.0236
      6 C         142.8928  141.6435  160.4050 C.ar    1  UNL1        0.1179
      7 N         142.3238  142.9714  160.0013 N.pl3   1  UNL1       -0.2104
      8 S         141.5899  144.0055  159.2002 S.O2    1  UNL1        0.0737
      9 O         141.3430  145.4725  159.3927 O.2     1  UNL1       -0.1499
     10 O         142.2048  144.5519  160.4545 O.2     1  UNL1       -0.1499
     11 C         140.7794  144.6213  158.0983 C.ar    1  UNL1        0.1253
     12 C         140.4441  146.0827  158.1406 C.ar    1  UNL1        0.0202
     13 C         139.6336  146.6984  157.0388 C.ar    1  UNL1        0.0015
     14 C         139.1584  145.8527  155.8947 C.ar    1  UNL1        0.0046
     15 C         139.4937  144.3913  155.8525 C.ar    1  UNL1        0.0547
     16 C         140.3041  143.7756  156.9543 C.ar    1  UNL1        0.0247
     17 C         138.8421  143.5140  154.4003 C.2     1  UNL1        0.2461
     18 O         138.1081  144.5482  153.5992 O.2     1  UNL1       -0.2701
     19 N         138.6218  142.3091  153.5345 N.am    1  UNL1       -0.2969
     20 C         138.6829  140.8904  153.0513 C.3     1  UNL1        0.1181
     21 C         139.0182  139.4289  153.0090 C.ar    1  UNL1        0.0166
     22 C         138.7001  138.2984  152.0102 C.ar    1  UNL1        0.0962
     23 N         139.0354  136.8369  151.9680 N.ar    1  UNL1       -0.2426
     24 C         139.8458  136.2212  153.0698 C.ar    1  UNL1        0.0989
     25 C         140.3211  137.0669  154.2139 C.ar    1  UNL1        0.0205
     26 C         139.5871  138.1010  153.4128 C.ar    1  UNL1        0.0005
     27 C         141.1315  136.4512  155.3157 C.ar    1  UNL1        0.0222
     28 C         140.9112  135.2462  154.4498 C.ar    1  UNL1        0.0222
     29 C         141.4802  133.9184  154.8536 C.ar    1  UNL1        0.0989
     30 N         142.2694  133.7953  156.1232 N.ar    1  UNL1       -0.2423
     31 C         142.4897  135.0003  156.9891 C.ar    1  UNL1        0.0989
     32 C         143.3434  135.0408  158.4340 C.ar    1  UNL1        0.0222
     33 C         143.6056  136.1989  159.3506 C.ar    1  UNL1        0.0207
     34 C         143.0688  137.5585  159.0137 C.ar    1  UNL1        0.0829
     35 N         142.5936  136.7127  157.8696 N.ar    1  UNL1       -0.2438
     36 C         141.9208  136.3282  156.5853 C.ar    1  UNL1        0.0989
     37 H         142.6358  143.5264  160.7522 H       1  UNL1        0.1739
     38 H         138.0898  142.7132  152.8114 H       1  UNL1        0.1501
     39 C         144.6339  142.5893  163.8429 C.3     1  UNL1        0.2543
     40 O         143.9024  142.7253  162.5405 O.3     1  UNL1       -0.4553
@<TRIPOS>BOND
     1    39    40    1
     2    40     1    1
     3     1     2   ar
     4     2     3   ar
     5     3     4   ar
     6     4     5   ar
     7     5     6   ar
     8     6     7    1
     9     7     8    1
    10     8     9    2
    11     8    10    2
    12     8    11    1
    13    11    12   ar
    14    12    13   ar
    15    13    14   ar
    16    14    15   ar
    17    15    16   ar
    18    15    17    1
    19    17    18    2
    20    17    19   am
    21    19    20    1
    22    20    21    1
    23    21    22   ar
    24    22    23   ar
    25    23    24   ar
    26    24    25   ar
    27    25    26   ar
    28    25    27    1
    29    27    28   ar
    30    28    29   ar
    31    29    30   ar
    32    30    31   ar
    33    31    32   ar
    34    32    33   ar
    35    33    34   ar
    36    34    35   ar
    37    35    36   ar
    38     6     1   ar
    39    16    11   ar
    40    26    21   ar
    41    36    27   ar
    42    34     4    1
    43    36    31   ar
    44     7    37    1
    45    19    38    1
@<TRIPOS>MOLECULE
*****
 40 45 0 0 0
SMALL
GASTEIGER

@<TRIPOS>ATOM
      1 C         142.4080  137.9146  161.9116 C.ar    1  UNL1        0.2400
      2 N         142.9202  136.8644  160.9711 N.ar    1  UNL1       -0.2090
      3 C         143.0155  137.1548  159.5026 C.ar    1  UNL1        0.1036
      4 C         142.6819  138.3913  158.6441 C.ar    1  UNL1        0.0383
      5 C         142.4089  138.5905  160.1056 C.ar    1  UNL1        0.0236
      6 C         141.9911  139.2554  161.3836 C.ar    1  UNL1        0.1179
      7 N         141.4790  140.3056  162.3242 N.pl3   1  UNL1       -0.2104
      8 S         140.9342  141.6146  162.8137 S.O2    1  UNL1        0.0737
      9 O         140.5598  142.1306  164.1715 O.2     1  UNL1       -0.1499
     10 O         141.1493  140.6135  163.9098 O.2     1  UNL1       -0.1499
     11 C         140.4225  143.0246  162.7933 C.ar    1  UNL1        0.1253
     12 C         140.0047  143.6894  164.0713 C.ar    1  UNL1        0.0202
     13 C         139.4931  145.0993  164.0509 C.ar    1  UNL1        0.0015
     14 C         139.3992  145.8443  162.7524 C.ar    1  UNL1        0.0046
     15 C         139.8170  145.1795  161.4743 C.ar    1  UNL1        0.0547
     16 C         140.3286  143.7696  161.4948 C.ar    1  UNL1        0.0247
     17 C         139.6400  146.2201  159.9949 C.2     1  UNL1        0.2461
     18 O         139.0952  147.5291  160.4845 O.2     1  UNL1       -0.2701
     19 N         139.7353  146.5104  158.5264 N.am    1  UNL1       -0.2969
     20 C         140.0083  146.3112  157.0650 C.3     1  UNL1        0.1181
     21 C         140.4261  145.6463  155.7869 C.ar    1  UNL1        0.0166
     22 C         140.4597  146.1068  154.3159 C.ar    1  UNL1        0.0962
     23 N         140.8775  145.4419  153.0378 N.ar    1  UNL1       -0.2426
     24 C         141.3891  144.0321  153.0583 C.ar    1  UNL1        0.0989
     25 C         141.4830  143.2871  154.3568 C.ar    1  UNL1        0.0205
     26 C         140.9382  144.5961  154.8463 C.ar    1  UNL1        0.0005
     27 C         141.9947  141.8772  154.3773 C.ar    1  UNL1        0.0222
     28 C         142.0900  142.1676  152.9087 C.ar    1  UNL1        0.0222
     29 C         142.6022  141.1173  151.9682 C.ar    1  UNL1        0.0989
     30 N         143.0190  139.7766  152.4961 N.ar    1  UNL1       -0.2423
     31 C         142.9237  139.4862  153.9647 C.ar    1  UNL1        0.0989
     32 C         143.3450  138.0478  154.7209 C.ar    1  UNL1        0.0222
     33 C         143.2787  137.6835  156.1745 C.ar    1  UNL1        0.0207
     34 C         142.7772  138.6817  157.1756 C.ar    1  UNL1        0.0829
     35 N         142.6833  139.4267  155.8771 N.ar    1  UNL1       -0.2438
     36 C         142.4115  140.5365  154.9053 C.ar    1  UNL1        0.0989
     37 H         141.5406  139.8166  163.1764 H       1  UNL1        0.1739
     38 H         139.3995  147.4358  158.5130 H       1  UNL1        0.1501
     39 C         141.0878  136.9600  163.9354 C.3     1  UNL1        0.2543
     40 O         142.3127  137.6242  163.3801 O.3     1  UNL1       -0.4553
@<TRIPOS>BOND
     1    39    40    1
     2    40     1    1
     3     1     2   ar
     4     2     3   ar
     5     3     4   ar
     6     4     5   ar
     7     5     6   ar
     8     6     7    1
     9     7     8    1
    10     8     9    2
    11     8    10    2
    12     8    11    1
    13    11    12   ar
    14    12    13   ar
    15    13    14   ar
    16    14    15   ar
    17    15    16   ar
    18    15    17    1
    19    17    18    2
    20    17    19   am
    21    19    20    1
    22    20    21    1
    23    21    22   ar
    24    22    23   ar
    25    23    24   ar
    26    24    25   ar
    27    25    26   ar
    28    25    27    1
    29    27    28   ar
    30    28    29   ar
    31    29    30   ar
    32    30    31   ar
    33    31    32   ar
    34    32    33   ar
    35    33    34   ar
    36    34    35   ar
    37    35    36   ar
    38     6     1   ar
    39    16    11   ar
    40    26    21   ar
    41    36    27   ar
    42    34     4    1
    43    36    31   ar
    44     7    37    1
    45    19    38    1
