@<TRIPOS>MOLECULE
*****
 34 38 0 0 0
SMALL
GASTEIGER

@<TRIPOS>ATOM
      1 N         142.1128  138.8939  159.4788 N.ar    1  UNL1       -0.2286
      2 C         140.6659  138.6706  159.8050 C.ar    1  UNL1        0.0990
      3 C         140.4364  139.1116  161.2201 C.ar    1  UNL1        0.0338
      4 C         141.7415  139.6075  161.7686 C.ar    1  UNL1        0.0981
      5 N         142.7776  139.4730  160.6923 N.ar    1  UNL1       -0.1680
      6 C         141.5120  140.0486  163.1838 C.3     1  UNL1        0.1414
      7 N         140.0650  139.8253  163.5101 N.am    1  UNL1       -0.2661
      8 C         139.3996  140.1279  164.8198 C.2     1  UNL1        0.2496
      9 O         137.9366  139.8498  164.9998 O.2     1  UNL1       -0.2699
     10 C         139.4002  139.2462  162.2964 C.3     1  UNL1        0.1236
     11 C         143.4492  135.4848  155.7920 C.3     1  UNL1        0.0521
     12 C         143.4465  136.8867  156.3255 C.ar    1  UNL1        0.0609
     13 C         142.7810  137.1894  157.6353 C.ar    1  UNL1        0.0339
     14 C         142.7783  138.5913  158.1689 C.ar    1  UNL1        0.0855
     15 C         143.4409  139.6905  157.3927 C.ar    1  UNL1        0.0398
     16 C         144.1063  139.3878  156.0829 C.ar    1  UNL1        0.1000
     17 N         144.1091  137.9860  155.5493 N.ar    1  UNL1       -0.2480
     18 C         140.1971  140.7087  165.9497 C.ar    1  UNL1        0.0549
     19 C         140.7604  139.8095  167.0099 C.ar    1  UNL1        0.0229
     20 C         141.5580  140.3902  168.1399 C.ar    1  UNL1        0.1059
     21 C         141.7922  141.8701  168.2095 C.ar    1  UNL1        0.0183
     22 C         141.2289  142.7694  167.1493 C.ar    1  UNL1        0.0015
     23 C         140.4314  142.1886  166.0194 C.ar    1  UNL1        0.0045
     24 C         139.8681  143.0878  164.9592 C.ar    1  UNL1        0.0024
     25 C         138.3859  143.2966  164.8626 C.ar    1  UNL1        0.0001
     26 C         137.8226  144.1958  163.8024 C.ar    1  UNL1        0.0023
     27 C         138.7416  144.8862  162.8387 C.ar    1  UNL1        0.0296
     28 C         140.2238  144.6776  162.9351 C.ar    1  UNL1        0.1401
     29 F         141.1428  145.3680  161.9714 F       1  UNL1       -0.2042
     30 C         140.7872  143.7783  163.9954 C.ar    1  UNL1        0.0296
     31 S         142.1212  139.4909  169.2001 S.O2    1  UNL1        0.0105
     32 C         142.6843  138.5917  170.2604 C.3     1  UNL1        0.1816
     33 O         141.1468  140.0516  170.1932 O.2     1  UNL1       -0.1686
     34 O         143.0956  138.9302  168.2070 O.2     1  UNL1       -0.1686
@<TRIPOS>BOND
     1    11    12    1
     2    12    13   ar
     3    13    14   ar
     4    14     1    1
     5     1     2   ar
     6     2     3   ar
     7     3     4   ar
     8     4     5   ar
     9     4     6    1
    10     6     7    1
    11     7     8   am
    12     8     9    2
    13     8    18    1
    14    18    19   ar
    15    19    20   ar
    16    20    31    1
    17    31    32    1
    18    31    33    2
    19    31    34    2
    20    20    21   ar
    21    21    22   ar
    22    22    23   ar
    23    23    24    1
    24    24    25   ar
    25    25    26   ar
    26    26    27   ar
    27    27    28   ar
    28    28    29    1
    29    28    30   ar
    30     7    10    1
    31    14    15   ar
    32    15    16   ar
    33    16    17   ar
    34    17    12   ar
    35     5     1   ar
    36    23    18   ar
    37    30    24   ar
    38    10     3    1
@<TRIPOS>MOLECULE
*****
 34 38 0 0 0
SMALL
GASTEIGER

@<TRIPOS>ATOM
      1 N         141.8898  143.7452  159.8513 N.ar    1  UNL1       -0.2286
      2 C         143.0177  142.7691  160.0101 C.ar    1  UNL1        0.0990
      3 C         142.9677  142.2265  161.4077 C.ar    1  UNL1        0.0338
      4 C         141.8091  142.8673  162.1126 C.ar    1  UNL1        0.0981
      5 N         141.1429  143.8059  161.1507 N.ar    1  UNL1       -0.1680
      6 C         141.7591  142.3248  163.5101 C.3     1  UNL1        0.1414
      7 N         142.8870  141.3486  163.6690 N.am    1  UNL1       -0.2661
      8 C         143.2110  140.5700  164.9094 C.2     1  UNL1        0.2496
      9 O         144.3764  139.6257  164.9192 O.2     1  UNL1       -0.2699
     10 C         143.6339  141.2880  162.3696 C.3     1  UNL1        0.1236
     11 C         142.8714  144.9072  154.8828 C.3     1  UNL1        0.0521
     12 C         142.0566  145.1049  156.1266 C.ar    1  UNL1        0.0609
     13 C         142.3806  144.3262  157.3671 C.ar    1  UNL1        0.0339
     14 C         141.5658  144.5239  158.6109 C.ar    1  UNL1        0.0855
     15 C         140.4271  145.5002  158.6143 C.ar    1  UNL1        0.0398
     16 C         140.1031  146.2789  157.3738 C.ar    1  UNL1        0.1000
     17 N         140.9179  146.0812  156.1300 N.ar    1  UNL1       -0.2480
     18 C         142.3695  140.7356  166.1401 C.ar    1  UNL1        0.0549
     19 C         142.8684  141.5691  167.2831 C.ar    1  UNL1        0.0229
     20 C         142.0269  141.7347  168.5138 C.ar    1  UNL1        0.1059
     21 C         140.6868  141.0668  168.6015 C.ar    1  UNL1        0.0183
     22 C         140.1879  140.2333  167.4585 C.ar    1  UNL1        0.0015
     23 C         141.0293  140.0677  166.2278 C.ar    1  UNL1        0.0045
     24 C         140.5304  139.2342  165.0848 C.ar    1  UNL1        0.0024
     25 C         141.2097  137.9400  164.7479 C.ar    1  UNL1        0.0001
     26 C         140.7109  137.1065  163.6049 C.ar    1  UNL1        0.0023
     27 C         139.5328  137.5673  162.7988 C.ar    1  UNL1        0.0296
     28 C         138.8535  138.8615  163.1357 C.ar    1  UNL1        0.1401
     29 F         137.6754  139.3222  162.3296 F       1  UNL1       -0.2042
     30 C         139.3523  139.6950  164.2787 C.ar    1  UNL1        0.0296
     31 S         142.5259  142.5682  169.6568 S.O2    1  UNL1        0.0105
     32 C         143.0247  143.4017  170.7998 C.3     1  UNL1        0.1816
     33 O         141.2022  142.4156  170.3458 O.2     1  UNL1       -0.1686
     34 O         143.8495  142.7208  168.9678 O.2     1  UNL1       -0.1686
@<TRIPOS>BOND
     1    11    12    1
     2    12    13   ar
     3    13    14   ar
     4    14     1    1
     5     1     2   ar
     6     2     3   ar
     7     3     4   ar
     8     4     5   ar
     9     4     6    1
    10     6     7    1
    11     7     8   am
    12     8     9    2
    13     8    18    1
    14    18    19   ar
    15    19    20   ar
    16    20    31    1
    17    31    32    1
    18    31    33    2
    19    31    34    2
    20    20    21   ar
    21    21    22   ar
    22    22    23   ar
    23    23    24    1
    24    24    25   ar
    25    25    26   ar
    26    26    27   ar
    27    27    28   ar
    28    28    29    1
    29    28    30   ar
    30     7    10    1
    31    14    15   ar
    32    15    16   ar
    33    16    17   ar
    34    17    12   ar
    35     5     1   ar
    36    23    18   ar
    37    30    24   ar
    38    10     3    1
@<TRIPOS>MOLECULE
*****
 34 38 0 0 0
SMALL
GASTEIGER

@<TRIPOS>ATOM
      1 N         142.9131  140.2592  159.3446 N.ar    1  UNL1       -0.2286
      2 C         141.5433  139.6726  159.5169 C.ar    1  UNL1        0.0990
      3 C         141.1362  139.8585  160.9485 C.ar    1  UNL1        0.0338
      4 C         142.2543  140.5601  161.6611 C.ar    1  UNL1        0.0981
      5 N         143.3525  140.8077  160.6698 N.ar    1  UNL1       -0.1680
      6 C         141.8471  140.7460  163.0927 C.3     1  UNL1        0.1414
      7 N         140.4773  140.1593  163.2650 N.am    1  UNL1       -0.2661
      8 C         139.6859  140.1269  164.5388 C.2     1  UNL1        0.2496
      9 O         138.3219  139.5031  164.5586 O.2     1  UNL1       -0.2699
     10 C         140.0380  139.6109  161.9398 C.3     1  UNL1        0.1236
     11 C         146.7166  142.3132  156.4611 C.3     1  UNL1        0.0521
     12 C         145.6063  141.3187  156.6290 C.ar    1  UNL1        0.0609
     13 C         144.8148  141.2862  157.9028 C.ar    1  UNL1        0.0339
     14 C         143.7045  140.2917  158.0708 C.ar    1  UNL1        0.0855
     15 C         143.3857  139.3297  156.9650 C.ar    1  UNL1        0.0398
     16 C         144.1772  139.3622  155.6912 C.ar    1  UNL1        0.1000
     17 N         145.2875  140.3567  155.5232 N.ar    1  UNL1       -0.2480
     18 C         140.2585  140.7182  165.7928 C.ar    1  UNL1        0.0549
     19 C         140.8639  139.8249  166.8346 C.ar    1  UNL1        0.0229
     20 C         141.4365  140.4163  168.0887 C.ar    1  UNL1        0.1059
     21 C         141.4036  141.9007  168.3009 C.ar    1  UNL1        0.0183
     22 C         140.7982  142.7941  167.2590 C.ar    1  UNL1        0.0015
     23 C         140.2256  142.2028  166.0050 C.ar    1  UNL1        0.0045
     24 C         139.6202  143.0960  164.9631 C.ar    1  UNL1        0.0024
     25 C         138.1538  143.0077  164.6598 C.ar    1  UNL1        0.0001
     26 C         137.5484  143.9010  163.6179 C.ar    1  UNL1        0.0023
     27 C         138.4093  144.8825  162.8794 C.ar    1  UNL1        0.0296
     28 C         139.8756  144.9709  163.1827 C.ar    1  UNL1        0.1401
     29 F         140.7365  145.9525  162.4442 F       1  UNL1       -0.2042
     30 C         140.4811  144.0776  164.2246 C.ar    1  UNL1        0.0296
     31 S         142.0420  139.5229  169.1305 S.O2    1  UNL1        0.0105
     32 C         142.6473  138.6295  170.1724 C.3     1  UNL1        0.1816
     33 O         141.0193  139.9887  170.1242 O.2     1  UNL1       -0.1686
     34 O         143.0646  139.0570  168.1369 O.2     1  UNL1       -0.1686
@<TRIPOS>BOND
     1    11    12    1
     2    12    13   ar
     3    13    14   ar
     4    14     1    1
     5     1     2   ar
     6     2     3   ar
     7     3     4   ar
     8     4     5   ar
     9     4     6    1
    10     6     7    1
    11     7     8   am
    12     8     9    2
    13     8    18    1
    14    18    19   ar
    15    19    20   ar
    16    20    31    1
    17    31    32    1
    18    31    33    2
    19    31    34    2
    20    20    21   ar
    21    21    22   ar
    22    22    23   ar
    23    23    24    1
    24    24    25   ar
    25    25    26   ar
    26    26    27   ar
    27    27    28   ar
    28    28    29    1
    29    28    30   ar
    30     7    10    1
    31    14    15   ar
    32    15    16   ar
    33    16    17   ar
    34    17    12   ar
    35     5     1   ar
    36    23    18   ar
    37    30    24   ar
    38    10     3    1
@<TRIPOS>MOLECULE
*****
 34 38 0 0 0
SMALL
GASTEIGER

@<TRIPOS>ATOM
      1 N         142.0976  138.8837  159.5535 N.ar    1  UNL1       -0.2286
      2 C         143.2239  139.8670  159.6748 C.ar    1  UNL1        0.0990
      3 C         143.1489  140.4919  161.0364 C.ar    1  UNL1        0.0338
      4 C         141.9763  139.8948  161.7565 C.ar    1  UNL1        0.0981
      5 N         141.3266  138.9009  160.8400 N.ar    1  UNL1       -0.1680
      6 C         141.9013  140.5197  163.1181 C.3     1  UNL1        0.1414
      7 N         143.0276  141.5031  163.2395 N.am    1  UNL1       -0.2661
      8 C         143.3297  142.3541  164.4370 C.2     1  UNL1        0.2496
      9 O         144.4963  143.2968  164.4123 O.2     1  UNL1       -0.2699
     10 C         143.7986  141.4858  161.9529 C.3     1  UNL1        0.1236
     11 C         143.5369  135.2298  156.1509 C.3     1  UNL1        0.0521
     12 C         142.5151  136.2056  156.6545 C.ar    1  UNL1        0.0609
     13 C         142.8172  137.0567  157.8522 C.ar    1  UNL1        0.0339
     14 C         141.7955  138.0326  158.3558 C.ar    1  UNL1        0.0855
     15 C         140.4715  138.1574  157.6618 C.ar    1  UNL1        0.0398
     16 C         140.1694  137.3062  156.4642 C.ar    1  UNL1        0.1000
     17 N         141.1912  136.3304  155.9605 N.ar    1  UNL1       -0.2480
     18 C         142.4653  142.2626  165.6595 C.ar    1  UNL1        0.0549
     19 C         142.9579  141.5320  166.8734 C.ar    1  UNL1        0.0229
     20 C         142.0935  141.4405  168.0959 C.ar    1  UNL1        0.1059
     21 C         140.7366  142.0796  168.1046 C.ar    1  UNL1        0.0183
     22 C         140.2439  142.8102  166.8906 C.ar    1  UNL1        0.0015
     23 C         141.1083  142.9017  165.6682 C.ar    1  UNL1        0.0045
     24 C         140.6156  143.6323  164.4543 C.ar    1  UNL1        0.0024
     25 C         141.2969  144.8925  164.0095 C.ar    1  UNL1        0.0001
     26 C         140.8043  145.6231  162.7956 C.ar    1  UNL1        0.0023
     27 C         139.6304  145.0935  162.0265 C.ar    1  UNL1        0.0296
     28 C         138.9490  143.8334  162.4713 C.ar    1  UNL1        0.1401
     29 F         137.7751  143.3039  161.7022 F       1  UNL1       -0.2042
     30 C         139.4416  143.1028  163.6852 C.ar    1  UNL1        0.0296
     31 S         142.5863  140.7099  169.3098 S.O2    1  UNL1        0.0105
     32 C         143.0790  139.9793  170.5237 C.3     1  UNL1        0.1816
     33 O         142.2208  141.8861  170.1660 O.2     1  UNL1       -0.1686
     34 O         142.9517  139.5337  168.4536 O.2     1  UNL1       -0.1686
@<TRIPOS>BOND
     1    11    12    1
     2    12    13   ar
     3    13    14   ar
     4    14     1    1
     5     1     2   ar
     6     2     3   ar
     7     3     4   ar
     8     4     5   ar
     9     4     6    1
    10     6     7    1
    11     7     8   am
    12     8     9    2
    13     8    18    1
    14    18    19   ar
    15    19    20   ar
    16    20    31    1
    17    31    32    1
    18    31    33    2
    19    31    34    2
    20    20    21   ar
    21    21    22   ar
    22    22    23   ar
    23    23    24    1
    24    24    25   ar
    25    25    26   ar
    26    26    27   ar
    27    27    28   ar
    28    28    29    1
    29    28    30   ar
    30     7    10    1
    31    14    15   ar
    32    15    16   ar
    33    16    17   ar
    34    17    12   ar
    35     5     1   ar
    36    23    18   ar
    37    30    24   ar
    38    10     3    1
@<TRIPOS>MOLECULE
*****
 34 38 0 0 0
SMALL
GASTEIGER

@<TRIPOS>ATOM
      1 N         142.4888  137.3615  158.5302 N.ar    1  UNL1       -0.2286
      2 C         143.1752  137.1779  159.8512 C.ar    1  UNL1        0.0990
      3 C         142.5518  138.1252  160.8330 C.ar    1  UNL1        0.0338
      4 C         141.4801  138.8942  160.1188 C.ar    1  UNL1        0.0981
      5 N         141.4412  138.4222  158.6955 N.ar    1  UNL1       -0.1680
      6 C         140.8566  139.8415  161.1006 C.3     1  UNL1        0.1414
      7 N         141.5430  139.6579  162.4218 N.am    1  UNL1       -0.2661
      8 C         141.2358  140.4040  163.6861 C.2     1  UNL1        0.2496
      9 O         142.0102  140.1111  164.9370 O.2     1  UNL1       -0.2699
     10 C         142.5907  138.5972  162.2563 C.3     1  UNL1        0.1236
     11 C         144.1059  133.0447  156.1322 C.3     1  UNL1        0.0521
     12 C         143.6047  134.4569  156.0667 C.ar    1  UNL1        0.0609
     13 C         143.2974  135.2031  157.3311 C.ar    1  UNL1        0.0339
     14 C         142.7961  136.6154  157.2657 C.ar    1  UNL1        0.0855
     15 C         142.6022  137.2815  155.9358 C.ar    1  UNL1        0.0398
     16 C         142.9095  136.5353  154.6713 C.ar    1  UNL1        0.1000
     17 N         143.4107  135.1230  154.7368 N.ar    1  UNL1       -0.2480
     18 C         140.1540  141.4430  163.6999 C.ar    1  UNL1        0.0549
     19 C         140.3942  142.7841  163.0722 C.ar    1  UNL1        0.0229
     20 C         139.3123  143.8232  163.0859 C.ar    1  UNL1        0.1059
     21 C         137.9905  143.5212  163.7272 C.ar    1  UNL1        0.0183
     22 C         137.7503  142.1802  164.3550 C.ar    1  UNL1        0.0015
     23 C         138.8320  141.1412  164.3413 C.ar    1  UNL1        0.0045
     24 C         138.5919  139.8001  164.9690 C.ar    1  UNL1        0.0024
     25 C         138.9966  138.5501  164.2454 C.ar    1  UNL1        0.0001
     26 C         138.7565  137.2091  164.8731 C.ar    1  UNL1        0.0023
     27 C         138.1116  137.1181  166.2244 C.ar    1  UNL1        0.0296
     28 C         137.7069  138.3681  166.9480 C.ar    1  UNL1        0.1401
     29 F         137.0620  138.2772  168.2992 F       1  UNL1       -0.2042
     30 C         137.9470  139.7092  166.3203 C.ar    1  UNL1        0.0296
     31 S         139.5526  145.1641  162.4581 S.O2    1  UNL1        0.0105
     32 C         139.7928  146.5051  161.8304 C.3     1  UNL1        0.1816
     33 O         138.0732  145.3551  162.3001 O.2     1  UNL1       -0.1686
     34 O         141.0320  144.9732  162.6162 O.2     1  UNL1       -0.1686
@<TRIPOS>BOND
     1    11    12    1
     2    12    13   ar
     3    13    14   ar
     4    14     1    1
     5     1     2   ar
     6     2     3   ar
     7     3     4   ar
     8     4     5   ar
     9     4     6    1
    10     6     7    1
    11     7     8   am
    12     8     9    2
    13     8    18    1
    14    18    19   ar
    15    19    20   ar
    16    20    31    1
    17    31    32    1
    18    31    33    2
    19    31    34    2
    20    20    21   ar
    21    21    22   ar
    22    22    23   ar
    23    23    24    1
    24    24    25   ar
    25    25    26   ar
    26    26    27   ar
    27    27    28   ar
    28    28    29    1
    29    28    30   ar
    30     7    10    1
    31    14    15   ar
    32    15    16   ar
    33    16    17   ar
    34    17    12   ar
    35     5     1   ar
    36    23    18   ar
    37    30    24   ar
    38    10     3    1
@<TRIPOS>MOLECULE
*****
 34 38 0 0 0
SMALL
GASTEIGER

@<TRIPOS>ATOM
      1 N         140.9103  139.0129  159.7975 N.ar    1  UNL1       -0.2286
      2 C         139.9376  140.1417  159.9689 C.ar    1  UNL1        0.0990
      3 C         140.0672  140.6562  161.3719 C.ar    1  UNL1        0.0338
      4 C         141.1201  139.8454  162.0676 C.ar    1  UNL1        0.0981
      5 N         141.6412  138.8297  161.0946 N.ar    1  UNL1       -0.1680
      6 C         141.2498  140.3599  163.4707 C.3     1  UNL1        0.1414
      7 N         140.2770  141.4888  163.6421 N.am    1  UNL1       -0.2661
      8 C         140.0712  142.2932  164.8913 C.2     1  UNL1        0.2496
      9 O         139.0565  143.3978  164.9134 O.2     1  UNL1       -0.2699
     10 C         139.5462  141.6719  162.3450 C.3     1  UNL1        0.1236
     11 C         139.0427  136.9809  155.3949 C.3     1  UNL1        0.0521
     12 C         140.1823  137.1923  156.3470 C.ar    1  UNL1        0.0609
     13 C         139.9766  137.9968  157.5962 C.ar    1  UNL1        0.0339
     14 C         141.1162  138.2084  158.5483 C.ar    1  UNL1        0.0855
     15 C         142.4616  137.6154  158.2513 C.ar    1  UNL1        0.0398
     16 C         142.6673  136.8109  157.0021 C.ar    1  UNL1        0.1000
     17 N         141.5277  136.5994  156.0499 N.ar    1  UNL1       -0.2480
     18 C         140.8801  141.9932  166.1183 C.ar    1  UNL1        0.0549
     19 C         140.2290  141.3509  167.3072 C.ar    1  UNL1        0.0229
     20 C         141.0380  141.0509  168.5344 C.ar    1  UNL1        0.1059
     21 C         142.4978  141.3932  168.5726 C.ar    1  UNL1        0.0183
     22 C         143.1489  142.0356  167.3836 C.ar    1  UNL1        0.0015
     23 C         142.3400  142.3355  166.1565 C.ar    1  UNL1        0.0045
     24 C         142.9911  142.9778  164.9676 C.ar    1  UNL1        0.0024
     25 C         142.5905  144.3616  164.5495 C.ar    1  UNL1        0.0001
     26 C         143.2415  145.0039  163.3606 C.ar    1  UNL1        0.0023
     27 C         144.2932  144.2625  162.5897 C.ar    1  UNL1        0.0296
     28 C         144.6938  142.8788  163.0077 C.ar    1  UNL1        0.1401
     29 F         145.7455  142.1373  162.2368 F       1  UNL1       -0.2042
     30 C         144.0428  142.2364  164.1967 C.ar    1  UNL1        0.0296
     31 S         140.3868  140.4086  169.7233 S.O2    1  UNL1        0.0105
     32 C         139.7357  139.7664  170.9122 C.3     1  UNL1        0.1816
     33 O         141.4683  140.9523  170.6093 O.2     1  UNL1       -0.1686
     34 O         139.3053  139.8649  168.8374 O.2     1  UNL1       -0.1686
@<TRIPOS>BOND
     1    11    12    1
     2    12    13   ar
     3    13    14   ar
     4    14     1    1
     5     1     2   ar
     6     2     3   ar
     7     3     4   ar
     8     4     5   ar
     9     4     6    1
    10     6     7    1
    11     7     8   am
    12     8     9    2
    13     8    18    1
    14    18    19   ar
    15    19    20   ar
    16    20    31    1
    17    31    32    1
    18    31    33    2
    19    31    34    2
    20    20    21   ar
    21    21    22   ar
    22    22    23   ar
    23    23    24    1
    24    24    25   ar
    25    25    26   ar
    26    26    27   ar
    27    27    28   ar
    28    28    29    1
    29    28    30   ar
    30     7    10    1
    31    14    15   ar
    32    15    16   ar
    33    16    17   ar
    34    17    12   ar
    35     5     1   ar
    36    23    18   ar
    37    30    24   ar
    38    10     3    1
@<TRIPOS>MOLECULE
*****
 34 38 0 0 0
SMALL
GASTEIGER

@<TRIPOS>ATOM
      1 N         141.8925  138.0867  158.2592 N.ar    1  UNL1       -0.2286
      2 C         141.1535  139.3797  158.0801 C.ar    1  UNL1        0.0990
      3 C         140.8272  139.9195  159.4410 C.ar    1  UNL1        0.0338
      4 C         141.3645  138.9600  160.4613 C.ar    1  UNL1        0.0981
      5 N         142.0229  137.8273  159.7308 N.ar    1  UNL1       -0.1680
      6 C         141.0382  139.4998  161.8222 C.3     1  UNL1        0.1414
      7 N         140.2992  140.7928  161.6432 N.am    1  UNL1       -0.2661
      8 C         139.7816  141.6721  162.7426 C.2     1  UNL1        0.2496
      9 O         139.0574  142.9426  162.4089 O.2     1  UNL1       -0.2699
     10 C         140.1688  141.0522  160.1715 C.3     1  UNL1        0.1236
     11 C         144.0333  133.6147  156.7044 C.3     1  UNL1        0.0521
     12 C         143.4806  134.9714  156.3823 C.ar    1  UNL1        0.0609
     13 C         142.9629  135.8507  157.4818 C.ar    1  UNL1        0.0339
     14 C         142.4101  137.2075  157.1597 C.ar    1  UNL1        0.0855
     15 C         142.3750  137.6849  155.7382 C.ar    1  UNL1        0.0398
     16 C         142.8927  136.8055  154.6387 C.ar    1  UNL1        0.1000
     17 N         143.4455  135.4488  154.9608 N.ar    1  UNL1       -0.2480
     18 C         139.9881  141.2808  164.1759 C.ar    1  UNL1        0.0549
     19 C         139.0043  140.3749  164.8552 C.ar    1  UNL1        0.0229
     20 C         139.2108  139.9837  166.2886 C.ar    1  UNL1        0.1059
     21 C         140.4009  140.4983  167.0425 C.ar    1  UNL1        0.0183
     22 C         141.3848  141.4043  166.3632 C.ar    1  UNL1        0.0015
     23 C         141.1783  141.7955  164.9299 C.ar    1  UNL1        0.0045
     24 C         142.1621  142.7014  164.2506 C.ar    1  UNL1        0.0024
     25 C         141.9808  144.1890  164.3156 C.ar    1  UNL1        0.0001
     26 C         142.9645  145.0949  163.6363 C.ar    1  UNL1        0.0023
     27 C         144.1296  144.5132  162.8919 C.ar    1  UNL1        0.0296
     28 C         144.3111  143.0257  162.8268 C.ar    1  UNL1        0.1401
     29 F         145.4762  142.4440  162.0824 F       1  UNL1       -0.2042
     30 C         143.3273  142.1197  163.5061 C.ar    1  UNL1        0.0296
     31 S         138.2269  139.0778  166.9678 S.O2    1  UNL1        0.0105
     32 C         137.2431  138.1719  167.6472 C.3     1  UNL1        0.1816
     33 O         138.7838  139.4742  168.3031 O.2     1  UNL1       -0.1686
     34 O         137.6700  138.6813  165.6327 O.2     1  UNL1       -0.1686
@<TRIPOS>BOND
     1    11    12    1
     2    12    13   ar
     3    13    14   ar
     4    14     1    1
     5     1     2   ar
     6     2     3   ar
     7     3     4   ar
     8     4     5   ar
     9     4     6    1
    10     6     7    1
    11     7     8   am
    12     8     9    2
    13     8    18    1
    14    18    19   ar
    15    19    20   ar
    16    20    31    1
    17    31    32    1
    18    31    33    2
    19    31    34    2
    20    20    21   ar
    21    21    22   ar
    22    22    23   ar
    23    23    24    1
    24    24    25   ar
    25    25    26   ar
    26    26    27   ar
    27    27    28   ar
    28    28    29    1
    29    28    30   ar
    30     7    10    1
    31    14    15   ar
    32    15    16   ar
    33    16    17   ar
    34    17    12   ar
    35     5     1   ar
    36    23    18   ar
    37    30    24   ar
    38    10     3    1
@<TRIPOS>MOLECULE
*****
 34 38 0 0 0
SMALL
GASTEIGER

@<TRIPOS>ATOM
      1 N         141.6972  142.4274  166.1331 N.ar    1  UNL1       -0.2286
      2 C         140.8423  143.3569  165.3237 C.ar    1  UNL1        0.0990
      3 C         140.9722  142.9680  163.8809 C.ar    1  UNL1        0.0338
      4 C         141.9074  141.7981  163.7985 C.ar    1  UNL1        0.0981
      5 N         142.3555  141.4640  165.1904 N.ar    1  UNL1       -0.1680
      6 C         142.0372  141.4091  162.3556 C.3     1  UNL1        0.1414
      7 N         141.1823  142.3386  161.5462 N.am    1  UNL1       -0.2661
      8 C         141.0149  142.3098  160.0559 C.2     1  UNL1        0.2496
      9 O         140.1213  143.3085  159.3820 O.2     1  UNL1       -0.2699
     10 C         140.5240  143.3020  162.4889 C.3     1  UNL1        0.1236
     11 C         139.6525  142.9468  170.8817 C.3     1  UNL1        0.0521
     12 C         140.8422  142.7160  169.9978 C.ar    1  UNL1        0.0609
     13 C         140.6749  142.6871  168.5074 C.ar    1  UNL1        0.0339
     14 C         141.8646  142.4563  167.6234 C.ar    1  UNL1        0.0855
     15 C         143.2216  142.2542  168.2298 C.ar    1  UNL1        0.0398
     16 C         143.3888  142.2831  169.7202 C.ar    1  UNL1        0.1000
     17 N         142.1992  142.5139  170.6042 N.ar    1  UNL1       -0.2480
     18 C         141.7412  141.2822  159.2394 C.ar    1  UNL1        0.0549
     19 C         142.9666  141.6686  158.4653 C.ar    1  UNL1        0.0229
     20 C         143.6929  140.6410  157.6488 C.ar    1  UNL1        0.1059
     21 C         143.1937  139.2272  157.6063 C.ar    1  UNL1        0.0183
     22 C         141.9683  138.8408  158.3803 C.ar    1  UNL1        0.0015
     23 C         141.2421  139.8683  159.1968 C.ar    1  UNL1        0.0045
     24 C         140.0167  139.4820  159.9709 C.ar    1  UNL1        0.0024
     25 C         138.6807  140.0495  159.5926 C.ar    1  UNL1        0.0001
     26 C         137.4553  139.6632  160.3666 C.ar    1  UNL1        0.0023
     27 C         137.5659  138.7093  161.5190 C.ar    1  UNL1        0.0296
     28 C         138.9018  138.1417  161.8973 C.ar    1  UNL1        0.1401
     29 F         139.0123  137.1879  163.0496 F       1  UNL1       -0.2042
     30 C         140.1272  138.5280  161.1233 C.ar    1  UNL1        0.0296
     31 S         144.9182  141.0274  156.8748 S.O2    1  UNL1        0.0105
     32 C         146.1436  141.4138  156.1007 C.3     1  UNL1        0.1816
     33 O         145.0453  139.6195  156.3731 O.2     1  UNL1       -0.1686
     34 O         144.7912  142.4354  157.3764 O.2     1  UNL1       -0.1686
@<TRIPOS>BOND
     1    11    12    1
     2    12    13   ar
     3    13    14   ar
     4    14     1    1
     5     1     2   ar
     6     2     3   ar
     7     3     4   ar
     8     4     5   ar
     9     4     6    1
    10     6     7    1
    11     7     8   am
    12     8     9    2
    13     8    18    1
    14    18    19   ar
    15    19    20   ar
    16    20    31    1
    17    31    32    1
    18    31    33    2
    19    31    34    2
    20    20    21   ar
    21    21    22   ar
    22    22    23   ar
    23    23    24    1
    24    24    25   ar
    25    25    26   ar
    26    26    27   ar
    27    27    28   ar
    28    28    29    1
    29    28    30   ar
    30     7    10    1
    31    14    15   ar
    32    15    16   ar
    33    16    17   ar
    34    17    12   ar
    35     5     1   ar
    36    23    18   ar
    37    30    24   ar
    38    10     3    1
@<TRIPOS>MOLECULE
*****
 34 38 0 0 0
SMALL
GASTEIGER

@<TRIPOS>ATOM
      1 N         142.4621  141.3516  166.8223 N.ar    1  UNL1       -0.2286
      2 C         142.6889  139.9027  166.5072 C.ar    1  UNL1        0.0990
      3 C         142.7159  139.7516  165.0151 C.ar    1  UNL1        0.0338
      4 C         142.5058  141.1071  164.4080 C.ar    1  UNL1        0.0981
      5 N         142.3490  142.0959  165.5250 N.ar    1  UNL1       -0.1680
      6 C         142.5328  140.9560  162.9159 C.3     1  UNL1        0.1414
      7 N         142.7596  139.5070  162.6007 N.am    1  UNL1       -0.2661
      8 C         142.8562  138.9077  161.2292 C.2     1  UNL1        0.2496
      9 O         143.0865  137.4341  161.0690 O.2     1  UNL1       -0.2699
     10 C         142.8727  138.7627  163.8982 C.3     1  UNL1        0.1236
     11 C         139.5796  143.0544  170.7961 C.3     1  UNL1        0.0521
     12 C         140.9241  142.8024  170.1809 C.ar    1  UNL1        0.0609
     13 C         141.0209  142.2030  168.8093 C.ar    1  UNL1        0.0339
     14 C         142.3655  141.9509  168.1940 C.ar    1  UNL1        0.0855
     15 C         143.6134  142.2982  168.9504 C.ar    1  UNL1        0.0398
     16 C         143.5166  142.8976  170.3220 C.ar    1  UNL1        0.1000
     17 N         142.1720  143.1497  170.9373 N.ar    1  UNL1       -0.2480
     18 C         142.7227  139.7819  160.0176 C.ar    1  UNL1        0.0549
     19 C         143.9419  140.1700  159.2347 C.ar    1  UNL1        0.0229
     20 C         143.8083  141.0442  158.0230 C.ar    1  UNL1        0.1059
     21 C         142.4556  141.5303  157.5944 C.ar    1  UNL1        0.0183
     22 C         141.2363  141.1423  158.3773 C.ar    1  UNL1        0.0015
     23 C         141.3699  140.2681  159.5888 C.ar    1  UNL1        0.0045
     24 C         140.1507  139.8800  160.3718 C.ar    1  UNL1        0.0024
     25 C         139.7560  138.4368  160.4786 C.ar    1  UNL1        0.0001
     26 C         138.5368  138.0488  161.2615 C.ar    1  UNL1        0.0023
     27 C         137.7124  139.1039  161.9376 C.ar    1  UNL1        0.0296
     28 C         138.1070  140.5470  161.8308 C.ar    1  UNL1        0.1401
     29 F         137.2826  141.6021  162.5069 F       1  UNL1       -0.2042
     30 C         139.3263  140.9352  161.0479 C.ar    1  UNL1        0.0296
     31 S         145.0276  141.4322  157.2402 S.O2    1  UNL1        0.0105
     32 C         146.2468  141.8201  156.4573 C.3     1  UNL1        0.1816
     33 O         145.0796  140.0583  156.6404 O.2     1  UNL1       -0.1686
     34 O         144.9756  142.8061  157.8399 O.2     1  UNL1       -0.1686
@<TRIPOS>BOND
     1    11    12    1
     2    12    13   ar
     3    13    14   ar
     4    14     1    1
     5     1     2   ar
     6     2     3   ar
     7     3     4   ar
     8     4     5   ar
     9     4     6    1
    10     6     7    1
    11     7     8   am
    12     8     9    2
    13     8    18    1
    14    18    19   ar
    15    19    20   ar
    16    20    31    1
    17    31    32    1
    18    31    33    2
    19    31    34    2
    20    20    21   ar
    21    21    22   ar
    22    22    23   ar
    23    23    24    1
    24    24    25   ar
    25    25    26   ar
    26    26    27   ar
    27    27    28   ar
    28    28    29    1
    29    28    30   ar
    30     7    10    1
    31    14    15   ar
    32    15    16   ar
    33    16    17   ar
    34    17    12   ar
    35     5     1   ar
    36    23    18   ar
    37    30    24   ar
    38    10     3    1
