@<TRIPOS>MOLECULE
*****
 36 38 0 0 0
SMALL
GASTEIGER

@<TRIPOS>ATOM
      1 C         140.5915  140.7197  166.5590 C.3     1  UNL1        0.0800
      2 C         141.9502  140.0858  166.6051 C.3     1  UNL1        0.0372
      3 C         143.1333  140.8050  166.0282 C.3     1  UNL1        0.0738
      4 N         142.9578  142.1581  165.4052 N.3     1  UNL1       -0.2738
      5 C         141.5992  142.7921  165.3590 C.3     1  UNL1        0.0738
      6 C         140.4160  142.0728  165.9359 C.3     1  UNL1        0.0372
      7 N         137.9308  139.3786  169.1805 N.am    1  UNL1       -0.1773
      8 C         139.1140  140.0978  168.6035 C.2     1  UNL1        0.3266
      9 O         140.0029  140.9143  169.4942 O.2     1  UNL1       -0.2504
     10 N         139.4083  140.0005  167.1359 N.am    1  UNL1       -0.2600
     11 H         137.3474  138.8427  168.5959 H       1  UNL1        0.1841
     12 C         136.3887  138.8574  171.2054 C.3     1  UNL1        0.2056
     13 O         137.6365  139.4759  170.6481 O.3     1  UNL1       -0.2624
     14 C         138.5195  139.1840  166.2452 C.3     1  UNL1        0.1222
     15 C         139.0262  138.7022  164.9181 C.ar    1  UNL1        0.0047
     16 C         140.0356  137.6138  164.7022 C.ar    1  UNL1        0.0049
     17 C         140.2458  137.4631  163.2246 C.ar    1  UNL1        0.0352
     18 S         139.3663  138.4584  162.5274 S.2     1  UNL1       -0.0862
     19 C         138.6126  139.2241  163.5741 C.ar    1  UNL1        0.0328
     20 C         144.1411  142.8773  164.8282 C.3     1  UNL1        0.0592
     21 C         144.1346  144.3741  164.7309 C.3     1  UNL1        0.0174
     22 C         145.3307  142.0997  164.3487 C.3     1  UNL1        0.0372
     23 C         145.4671  141.7584  162.8945 C.3     1  UNL1        0.0911
     24 N         144.8912  142.6711  161.8527 N.am    1  UNL1       -0.3008
     25 C         143.5275  142.4004  161.2895 C.2     1  UNL1        0.2467
     26 O         142.7398  141.2170  161.7681 O.2     1  UNL1       -0.2701
     27 H         145.4082  143.4478  161.5385 H       1  UNL1        0.1497
     28 C         142.9516  143.3131  160.2477 C.ar    1  UNL1        0.0630
     29 C         143.3274  143.1374  158.8062 C.ar    1  UNL1       -0.0140
     30 C         144.2790  142.0490  158.4065 C.3     1  UNL1        0.0313
     31 C         142.7515  144.0501  157.7644 C.ar    1  UNL1        0.0267
     32 C         141.7998  145.1384  158.1641 C.ar    1  UNL1        0.1376
     33 CL        141.2239  146.0511  157.1223 Cl      1  UNL1       -0.0614
     34 N         141.4240  145.3142  159.6056 N.ar    1  UNL1       -0.2381
     35 C         141.9999  144.4015  160.6474 C.ar    1  UNL1        0.0643
     36 C         141.6242  144.5772  162.0889 C.3     1  UNL1        0.0523
@<TRIPOS>BOND
     1    12    13    1
     2    13     7    1
     3     7     8   am
     4     8     9    2
     5     8    10   am
     6    10    14    1
     7    14    15    1
     8    15    16   ar
     9    16    17   ar
    10    17    18   ar
    11    18    19   ar
    12    10     1    1
    13     1     2    1
    14     2     3    1
    15     3     4    1
    16     4    20    1
    17    20    21    1
    18    20    22    1
    19    22    23    1
    20    23    24    1
    21    24    25   am
    22    25    26    2
    23    25    28    1
    24    28    29   ar
    25    29    30    1
    26    29    31   ar
    27    31    32   ar
    28    32    33    1
    29    32    34   ar
    30    34    35   ar
    31    35    36    1
    32     4     5    1
    33     5     6    1
    34    19    15   ar
    35     6     1    1
    36    35    28   ar
    37     7    11    1
    38    24    27    1
@<TRIPOS>MOLECULE
*****
 36 38 0 0 0
SMALL
GASTEIGER

@<TRIPOS>ATOM
      1 C         139.1536  141.8686  164.8251 C.3     1  UNL1        0.0800
      2 C         138.8024  140.4927  165.3084 C.3     1  UNL1        0.0372
      3 C         139.1966  140.0596  166.6893 C.3     1  UNL1        0.0738
      4 N         139.9419  141.0023  167.5870 N.3     1  UNL1       -0.2738
      5 C         140.2931  142.3782  167.1037 C.3     1  UNL1        0.0738
      6 C         139.8989  142.8113  165.7227 C.3     1  UNL1        0.0372
      7 N         139.0091  143.9393  161.4426 N.am    1  UNL1       -0.1773
      8 C         139.4032  143.5061  162.8236 C.2     1  UNL1        0.3266
      9 O         140.4411  144.2773  163.5840 O.2     1  UNL1       -0.2504
     10 N         138.7594  142.3018  163.4441 N.am    1  UNL1       -0.2600
     11 H         138.3279  143.4332  160.9436 H       1  UNL1        0.1841
     12 C         139.5338  146.4835  161.4860 C.3     1  UNL1        0.2056
     13 O         139.6528  145.1437  160.8221 O.3     1  UNL1       -0.2624
     14 C         137.7216  141.5306  162.6838 C.3     1  UNL1        0.1222
     15 C         138.1361  140.4190  161.7658 C.ar    1  UNL1        0.0047
     16 C         138.1134  138.9543  162.0886 C.ar    1  UNL1        0.0049
     17 C         138.6093  138.2070  160.8862 C.ar    1  UNL1        0.0352
     18 S         138.9385  139.2099  159.8204 S.2     1  UNL1       -0.0862
     19 C         138.6460  140.5769  160.3640 C.ar    1  UNL1        0.0328
     20 C         140.3360  140.5691  168.9680 C.3     1  UNL1        0.0592
     21 C         139.2828  140.3377  170.0106 C.3     1  UNL1        0.0174
     22 C         141.7834  140.3674  169.3062 C.3     1  UNL1        0.0372
     23 C         142.6424  139.4972  168.4375 C.3     1  UNL1        0.0911
     24 N         142.4796  139.5319  166.9467 N.am    1  UNL1       -0.3008
     25 C         143.2909  138.6130  166.0821 C.2     1  UNL1        0.2467
     26 O         144.2649  137.6595  166.7082 O.2     1  UNL1       -0.2701
     27 H         141.8403  140.1577  166.5358 H       1  UNL1        0.1497
     28 C         143.1280  138.6476  164.5914 C.ar    1  UNL1        0.0630
     29 C         141.9902  137.9154  163.9440 C.ar    1  UNL1       -0.0140
     30 C         141.0152  137.1486  164.7873 C.3     1  UNL1        0.0313
     31 C         141.8273  137.9501  162.4532 C.ar    1  UNL1        0.0267
     32 C         142.8023  138.7169  161.6099 C.ar    1  UNL1        0.1376
     33 CL        142.6394  138.7516  160.1192 Cl      1  UNL1       -0.0614
     34 N         143.9402  139.4492  162.2573 N.ar    1  UNL1       -0.2381
     35 C         144.1031  139.4145  163.7480 C.ar    1  UNL1        0.0643
     36 C         145.2409  140.1467  164.3954 C.3     1  UNL1        0.0523
@<TRIPOS>BOND
     1    12    13    1
     2    13     7    1
     3     7     8   am
     4     8     9    2
     5     8    10   am
     6    10    14    1
     7    14    15    1
     8    15    16   ar
     9    16    17   ar
    10    17    18   ar
    11    18    19   ar
    12    10     1    1
    13     1     2    1
    14     2     3    1
    15     3     4    1
    16     4    20    1
    17    20    21    1
    18    20    22    1
    19    22    23    1
    20    23    24    1
    21    24    25   am
    22    25    26    2
    23    25    28    1
    24    28    29   ar
    25    29    30    1
    26    29    31   ar
    27    31    32   ar
    28    32    33    1
    29    32    34   ar
    30    34    35   ar
    31    35    36    1
    32     4     5    1
    33     5     6    1
    34    19    15   ar
    35     6     1    1
    36    35    28   ar
    37     7    11    1
    38    24    27    1
@<TRIPOS>MOLECULE
*****
 36 38 0 0 0
SMALL
GASTEIGER

@<TRIPOS>ATOM
      1 C         142.2790  142.5576  164.5499 C.3     1  UNL1        0.0800
      2 C         140.8653  142.9805  164.8192 C.3     1  UNL1        0.0372
      3 C         140.3108  142.9009  166.2106 C.3     1  UNL1        0.0738
      4 N         141.1699  142.3984  167.3328 N.3     1  UNL1       -0.2738
      5 C         142.5837  141.9755  167.0635 C.3     1  UNL1        0.0738
      6 C         143.1382  142.0551  165.6721 C.3     1  UNL1        0.0372
      7 N         143.7357  141.4603  161.0252 N.am    1  UNL1       -0.1773
      8 C         143.1811  141.3807  162.4166 C.2     1  UNL1        0.3266
      9 O         142.9739  140.0446  163.0661 O.2     1  UNL1       -0.2504
     10 N         142.8337  142.6372  163.1585 N.am    1  UNL1       -0.2600
     11 H         143.8717  142.3372  160.5988 H       1  UNL1        0.1841
     12 C         143.0239  139.4678  159.5173 C.3     1  UNL1        0.2056
     13 O         144.0831  140.2037  160.2833 O.3     1  UNL1       -0.2624
     14 C         143.0408  143.9733  162.5090 C.3     1  UNL1        0.1222
     15 C         141.9122  144.6326  161.7729 C.ar    1  UNL1        0.0047
     16 C         140.8806  145.5416  162.3724 C.ar    1  UNL1        0.0049
     17 C         139.9478  145.9694  161.2783 C.ar    1  UNL1        0.0352
     18 S         140.4031  145.3247  160.0026 S.2     1  UNL1       -0.0862
     19 C         141.6171  144.4985  160.3084 C.ar    1  UNL1        0.0328
     20 C         140.6153  142.3188  168.7242 C.3     1  UNL1        0.0592
     21 C         140.4591  143.5666  169.5419 C.3     1  UNL1        0.0174
     22 C         140.2169  140.9913  169.2980 C.3     1  UNL1        0.0372
     23 C         139.4258  140.0231  168.4694 C.3     1  UNL1        0.0911
     24 N         139.6277  139.9673  166.9841 N.am    1  UNL1       -0.3008
     25 C         138.6121  139.2877  166.1141 C.2     1  UNL1        0.2467
     26 O         137.3947  138.6638  166.7295 O.2     1  UNL1       -0.2701
     27 H         140.4268  140.3768  166.5802 H       1  UNL1        0.1497
     28 C         138.8140  139.2319  164.6288 C.ar    1  UNL1        0.0630
     29 C         139.5825  138.0975  164.0185 C.ar    1  UNL1       -0.0140
     30 C         140.1490  137.0189  164.8934 C.3     1  UNL1        0.0313
     31 C         139.7843  138.0418  162.5332 C.ar    1  UNL1        0.0267
     32 C         139.2178  139.1204  161.6582 C.ar    1  UNL1        0.1376
     33 CL        139.4197  139.0646  160.1729 Cl      1  UNL1       -0.0614
     34 N         138.4493  140.2549  162.2686 N.ar    1  UNL1       -0.2381
     35 C         138.2474  140.3106  163.7539 C.ar    1  UNL1        0.0643
     36 C         137.4790  141.4450  164.3643 C.3     1  UNL1        0.0523
@<TRIPOS>BOND
     1    12    13    1
     2    13     7    1
     3     7     8   am
     4     8     9    2
     5     8    10   am
     6    10    14    1
     7    14    15    1
     8    15    16   ar
     9    16    17   ar
    10    17    18   ar
    11    18    19   ar
    12    10     1    1
    13     1     2    1
    14     2     3    1
    15     3     4    1
    16     4    20    1
    17    20    21    1
    18    20    22    1
    19    22    23    1
    20    23    24    1
    21    24    25   am
    22    25    26    2
    23    25    28    1
    24    28    29   ar
    25    29    30    1
    26    29    31   ar
    27    31    32   ar
    28    32    33    1
    29    32    34   ar
    30    34    35   ar
    31    35    36    1
    32     4     5    1
    33     5     6    1
    34    19    15   ar
    35     6     1    1
    36    35    28   ar
    37     7    11    1
    38    24    27    1
@<TRIPOS>MOLECULE
*****
 36 38 0 0 0
SMALL
GASTEIGER

@<TRIPOS>ATOM
      1 C         140.2146  143.1527  159.8526 C.3     1  UNL1        0.0800
      2 C         141.5239  142.4351  159.9967 C.3     1  UNL1        0.0372
      3 C         141.5468  140.9902  160.3989 C.3     1  UNL1        0.0738
      4 N         140.2606  140.2630  160.6570 N.3     1  UNL1       -0.2738
      5 C         138.9513  140.9806  160.5128 C.3     1  UNL1        0.0738
      6 C         138.9283  142.4254  160.1106 C.3     1  UNL1        0.0372
      7 N         140.1581  146.4165  157.5955 N.am    1  UNL1       -0.1773
      8 C         140.1812  144.9717  157.9978 C.2     1  UNL1        0.3266
      9 O         140.1938  143.9008  156.9474 O.2     1  UNL1       -0.2504
     10 N         140.1915  144.5976  159.4503 N.am    1  UNL1       -0.2600
     11 H         140.1498  147.1193  158.2849 H       1  UNL1        0.1841
     12 C         139.1064  147.7347  155.6190 C.3     1  UNL1        0.2056
     13 O         140.1477  146.7906  156.1429 O.3     1  UNL1       -0.2624
     14 C         140.1789  145.6684  160.5007 C.3     1  UNL1        0.1222
     15 C         140.2679  145.2971  161.9513 C.ar    1  UNL1        0.0047
     16 C         141.5315  145.1201  162.7401 C.ar    1  UNL1        0.0049
     17 C         141.1535  144.7513  164.1441 C.ar    1  UNL1        0.0352
     18 S         139.6564  144.7005  164.2230 S.2     1  UNL1       -0.0862
     19 C         139.1091  145.0378  162.8678 C.ar    1  UNL1        0.0328
     20 C         140.2836  138.8180  161.0592 C.3     1  UNL1        0.0592
     21 C         141.5890  138.1453  161.3646 C.3     1  UNL1        0.0174
     22 C         139.0012  138.0459  161.1559 C.3     1  UNL1        0.0372
     23 C         138.4503  137.6724  162.5001 C.3     1  UNL1        0.0911
     24 N         139.1425  138.1327  163.7487 N.am    1  UNL1       -0.3008
     25 C         138.7859  139.4554  164.3598 C.2     1  UNL1        0.2467
     26 O         137.7371  140.3177  163.7224 O.2     1  UNL1       -0.2701
     27 H         139.8309  137.5668  164.1671 H       1  UNL1        0.1497
     28 C         139.4781  139.9157  165.6084 C.ar    1  UNL1        0.0630
     29 C         138.9344  139.5315  166.9525 C.ar    1  UNL1       -0.0140
     30 C         137.6984  138.6870  167.0481 C.3     1  UNL1        0.0313
     31 C         139.6266  139.9918  168.2011 C.ar    1  UNL1        0.0267
     32 C         140.8626  140.8363  168.1056 C.ar    1  UNL1        0.1376
     33 CL        141.5548  141.2966  169.3541 Cl      1  UNL1       -0.0614
     34 N         141.4064  141.2206  166.7614 N.ar    1  UNL1       -0.2381
     35 C         140.7141  140.7603  165.5128 C.ar    1  UNL1        0.0643
     36 C         141.2579  141.1445  164.1687 C.3     1  UNL1        0.0523
@<TRIPOS>BOND
     1    12    13    1
     2    13     7    1
     3     7     8   am
     4     8     9    2
     5     8    10   am
     6    10    14    1
     7    14    15    1
     8    15    16   ar
     9    16    17   ar
    10    17    18   ar
    11    18    19   ar
    12    10     1    1
    13     1     2    1
    14     2     3    1
    15     3     4    1
    16     4    20    1
    17    20    21    1
    18    20    22    1
    19    22    23    1
    20    23    24    1
    21    24    25   am
    22    25    26    2
    23    25    28    1
    24    28    29   ar
    25    29    30    1
    26    29    31   ar
    27    31    32   ar
    28    32    33    1
    29    32    34   ar
    30    34    35   ar
    31    35    36    1
    32     4     5    1
    33     5     6    1
    34    19    15   ar
    35     6     1    1
    36    35    28   ar
    37     7    11    1
    38    24    27    1
@<TRIPOS>MOLECULE
*****
 36 38 0 0 0
SMALL
GASTEIGER

@<TRIPOS>ATOM
      1 C         142.2737  140.5179  160.5588 C.3     1  UNL1        0.0800
      2 C         143.2858  141.6230  160.6261 C.3     1  UNL1        0.0372
      3 C         142.8477  143.0232  160.9378 C.3     1  UNL1        0.0738
      4 N         141.3975  143.3185  161.1822 N.3     1  UNL1       -0.2738
      5 C         140.3854  142.2135  161.1150 C.3     1  UNL1        0.0738
      6 C         140.8235  140.8132  160.8032 C.3     1  UNL1        0.0372
      7 N         142.9993  137.1764  158.5444 N.am    1  UNL1       -0.1773
      8 C         142.5612  138.5767  158.8561 C.2     1  UNL1        0.3266
      9 O         141.9726  139.4363  157.7769 O.2     1  UNL1       -0.2504
     10 N         142.7118  139.1176  160.2471 N.am    1  UNL1       -0.2600
     11 H         143.3856  136.6123  159.2527 H       1  UNL1        0.1841
     12 C         143.3057  135.2424  156.8369 C.3     1  UNL1        0.2056
     13 O         142.8487  136.6356  157.1534 O.3     1  UNL1       -0.2624
     14 C         143.3004  138.2581  161.3264 C.3     1  UNL1        0.1222
     15 C         142.5988  138.1251  162.6455 C.ar    1  UNL1        0.0047
     16 C         141.2869  137.4370  162.8809 C.ar    1  UNL1        0.0049
     17 C         140.9632  137.5435  164.3418 C.ar    1  UNL1        0.0352
     18 S         142.0751  138.2975  165.0091 S.2     1  UNL1       -0.0862
     19 C         143.0859  138.6570  163.9608 C.ar    1  UNL1        0.0328
     20 C         140.9594  144.7189  161.4940 C.3     1  UNL1        0.0592
     21 C         140.4723  145.6148  160.3939 C.3     1  UNL1        0.0174
     22 C         141.0084  145.2233  162.9058 C.3     1  UNL1        0.0372
     23 C         141.6917  144.4142  163.9680 C.3     1  UNL1        0.0911
     24 N         141.1321  143.0826  164.3727 N.am    1  UNL1       -0.3008
     25 C         139.9018  143.0147  165.2281 C.2     1  UNL1        0.2467
     26 O         139.2310  144.2784  165.6788 O.2     1  UNL1       -0.2701
     27 H         141.5724  142.2532  164.0769 H       1  UNL1        0.1497
     28 C         139.3422  141.6831  165.6328 C.ar    1  UNL1        0.0630
     29 C         139.8250  141.0165  166.8868 C.ar    1  UNL1       -0.0140
     30 C         140.8674  141.6815  167.7360 C.3     1  UNL1        0.0313
     31 C         139.2655  139.6849  167.2915 C.ar    1  UNL1        0.0267
     32 C         138.2232  139.0199  166.4422 C.ar    1  UNL1        0.1376
     33 CL        137.6637  137.6883  166.8469 Cl      1  UNL1       -0.0614
     34 N         137.7403  139.6865  165.1882 N.ar    1  UNL1       -0.2381
     35 C         138.2998  141.0181  164.7835 C.ar    1  UNL1        0.0643
     36 C         137.8170  141.6848  163.5295 C.3     1  UNL1        0.0523
@<TRIPOS>BOND
     1    12    13    1
     2    13     7    1
     3     7     8   am
     4     8     9    2
     5     8    10   am
     6    10    14    1
     7    14    15    1
     8    15    16   ar
     9    16    17   ar
    10    17    18   ar
    11    18    19   ar
    12    10     1    1
    13     1     2    1
    14     2     3    1
    15     3     4    1
    16     4    20    1
    17    20    21    1
    18    20    22    1
    19    22    23    1
    20    23    24    1
    21    24    25   am
    22    25    26    2
    23    25    28    1
    24    28    29   ar
    25    29    30    1
    26    29    31   ar
    27    31    32   ar
    28    32    33    1
    29    32    34   ar
    30    34    35   ar
    31    35    36    1
    32     4     5    1
    33     5     6    1
    34    19    15   ar
    35     6     1    1
    36    35    28   ar
    37     7    11    1
    38    24    27    1
@<TRIPOS>MOLECULE
*****
 36 38 0 0 0
SMALL
GASTEIGER

@<TRIPOS>ATOM
      1 C         141.5631  140.3587  166.5421 C.3     1  UNL1        0.0800
      2 C         141.9886  141.7938  166.4453 C.3     1  UNL1        0.0372
      3 C         141.0444  142.8203  165.8934 C.3     1  UNL1        0.0738
      4 N         139.6747  142.4118  165.4383 N.3     1  UNL1       -0.2738
      5 C         139.2492  140.9767  165.5352 C.3     1  UNL1        0.0738
      6 C         140.1934  139.9502  166.0871 C.3     1  UNL1        0.0372
      7 N         143.4361  137.9831  169.1109 N.am    1  UNL1       -0.1773
      8 C         142.4920  139.0097  168.5590 C.2     1  UNL1        0.3266
      9 O         141.5325  139.7140  169.4719 O.2     1  UNL1       -0.2504
     10 N         142.5073  139.3321  167.0941 N.am    1  UNL1       -0.2600
     11 H         144.0658  137.5209  168.5117 H       1  UNL1        0.1841
     12 C         144.1731  136.4689  171.0894 C.3     1  UNL1        0.2056
     13 O         143.4208  137.6608  170.5758 O.3     1  UNL1       -0.2624
     14 C         143.4667  138.6278  166.1812 C.3     1  UNL1        0.1222
     15 C         143.7059  139.1517  164.7960 C.ar    1  UNL1        0.0047
     16 C         143.0051  138.6994  163.5493 C.ar    1  UNL1        0.0049
     17 C         143.5538  139.4879  162.3972 C.ar    1  UNL1        0.0352
     18 S         144.5937  140.4274  162.9320 S.2     1  UNL1       -0.0862
     19 C         144.6876  140.2196  164.4146 C.ar    1  UNL1        0.0328
     20 C         138.7305  143.4385  164.8864 C.3     1  UNL1        0.0592
     21 C         139.0123  144.8987  165.0822 C.3     1  UNL1        0.0174
     22 C         137.5046  143.0048  164.1386 C.3     1  UNL1        0.0372
     23 C         137.6392  142.3150  162.8135 C.3     1  UNL1        0.0911
     24 N         138.9936  142.1407  162.1928 N.am    1  UNL1       -0.3008
     25 C         139.6197  143.2700  161.4295 C.2     1  UNL1        0.2467
     26 O         138.8915  144.5736  161.2869 O.2     1  UNL1       -0.2701
     27 H         139.4716  141.2851  162.2865 H       1  UNL1        0.1497
     28 C         140.9741  143.0957  160.8088 C.ar    1  UNL1        0.0630
     29 C         141.1132  142.3697  159.5036 C.ar    1  UNL1       -0.0140
     30 C         139.8979  141.8179  158.8192 C.3     1  UNL1        0.0313
     31 C         142.4676  142.1954  158.8829 C.ar    1  UNL1        0.0267
     32 C         143.6829  142.7472  159.5674 C.ar    1  UNL1        0.1376
     33 CL        145.0373  142.5729  158.9467 Cl      1  UNL1       -0.0614
     34 N         143.5439  143.4733  160.8726 N.ar    1  UNL1       -0.2381
     35 C         142.1895  143.6476  161.4933 C.ar    1  UNL1        0.0643
     36 C         142.0504  144.3737  162.7984 C.3     1  UNL1        0.0523
@<TRIPOS>BOND
     1    12    13    1
     2    13     7    1
     3     7     8   am
     4     8     9    2
     5     8    10   am
     6    10    14    1
     7    14    15    1
     8    15    16   ar
     9    16    17   ar
    10    17    18   ar
    11    18    19   ar
    12    10     1    1
    13     1     2    1
    14     2     3    1
    15     3     4    1
    16     4    20    1
    17    20    21    1
    18    20    22    1
    19    22    23    1
    20    23    24    1
    21    24    25   am
    22    25    26    2
    23    25    28    1
    24    28    29   ar
    25    29    30    1
    26    29    31   ar
    27    31    32   ar
    28    32    33    1
    29    32    34   ar
    30    34    35   ar
    31    35    36    1
    32     4     5    1
    33     5     6    1
    34    19    15   ar
    35     6     1    1
    36    35    28   ar
    37     7    11    1
    38    24    27    1
@<TRIPOS>MOLECULE
*****
 36 38 0 0 0
SMALL
GASTEIGER

@<TRIPOS>ATOM
      1 C         141.6449  143.3208  161.3503 C.3     1  UNL1        0.0800
      2 C         142.8604  143.4946  162.2118 C.3     1  UNL1        0.0372
      3 C         143.5124  142.2982  162.8390 C.3     1  UNL1        0.0738
      4 N         142.9490  140.9280  162.6047 N.3     1  UNL1       -0.2738
      5 C         141.7334  140.7541  161.7432 C.3     1  UNL1        0.0738
      6 C         141.0814  141.9505  161.1160 C.3     1  UNL1        0.0372
      7 N         140.5228  145.9857  158.6320 N.am    1  UNL1       -0.1773
      8 C         141.1748  144.7893  159.2592 C.2     1  UNL1        0.3266
      9 O         142.0090  143.8650  158.4226 O.2     1  UNL1       -0.2504
     10 N         140.9928  144.5172  160.7231 N.am    1  UNL1       -0.2600
     11 H         139.9753  146.5923  159.1810 H       1  UNL1        0.1841
     12 C         139.5162  146.5797  156.3116 C.3     1  UNL1        0.2056
     13 O         140.7049  146.2578  157.1681 O.3     1  UNL1       -0.2624
     14 C         140.1586  145.4415  161.5596 C.3     1  UNL1        0.1222
     15 C         139.4622  144.9230  162.7829 C.ar    1  UNL1        0.0047
     16 C         138.1006  144.2948  162.8225 C.ar    1  UNL1        0.0049
     17 C         137.8020  143.9252  164.2454 C.ar    1  UNL1        0.0352
     18 S         138.9791  144.3250  165.0849 S.2     1  UNL1       -0.0862
     19 C         140.0051  144.9416  164.1810 C.ar    1  UNL1        0.0328
     20 C         143.6011  139.7315  163.2319 C.3     1  UNL1        0.0592
     21 C         144.8997  139.8843  163.9668 C.3     1  UNL1        0.0174
     22 C         142.9545  138.3824  163.1242 C.3     1  UNL1        0.0372
     23 C         141.7905  138.0361  164.0046 C.3     1  UNL1        0.0911
     24 N         141.6961  138.6149  165.3852 N.am    1  UNL1       -0.3008
     25 C         140.8196  139.8051  165.6412 C.2     1  UNL1        0.2467
     26 O         140.0377  140.4164  164.5166 O.2     1  UNL1       -0.2701
     27 H         142.2093  138.2136  166.1234 H       1  UNL1        0.1497
     28 C         140.7252  140.3839  167.0218 C.ar    1  UNL1        0.0630
     29 C         139.5549  140.0475  167.8976 C.ar    1  UNL1       -0.0140
     30 C         138.4790  139.1322  167.3929 C.3     1  UNL1        0.0313
     31 C         139.4605  140.6262  169.2783 C.ar    1  UNL1        0.0267
     32 C         140.5363  141.5415  169.7830 C.ar    1  UNL1        0.1376
     33 CL        140.4419  142.1203  171.1636 Cl      1  UNL1       -0.0614
     34 N         141.7067  141.8779  168.9071 N.ar    1  UNL1       -0.2381
     35 C         141.8012  141.2991  167.5265 C.ar    1  UNL1        0.0643
     36 C         142.9715  141.6356  166.6507 C.3     1  UNL1        0.0523
@<TRIPOS>BOND
     1    12    13    1
     2    13     7    1
     3     7     8   am
     4     8     9    2
     5     8    10   am
     6    10    14    1
     7    14    15    1
     8    15    16   ar
     9    16    17   ar
    10    17    18   ar
    11    18    19   ar
    12    10     1    1
    13     1     2    1
    14     2     3    1
    15     3     4    1
    16     4    20    1
    17    20    21    1
    18    20    22    1
    19    22    23    1
    20    23    24    1
    21    24    25   am
    22    25    26    2
    23    25    28    1
    24    28    29   ar
    25    29    30    1
    26    29    31   ar
    27    31    32   ar
    28    32    33    1
    29    32    34   ar
    30    34    35   ar
    31    35    36    1
    32     4     5    1
    33     5     6    1
    34    19    15   ar
    35     6     1    1
    36    35    28   ar
    37     7    11    1
    38    24    27    1
@<TRIPOS>MOLECULE
*****
 36 38 0 0 0
SMALL
GASTEIGER

@<TRIPOS>ATOM
      1 C         141.1878  143.0809  160.8895 C.3     1  UNL1        0.0800
      2 C         140.3057  141.8977  161.1575 C.3     1  UNL1        0.0372
      3 C         140.8972  140.6270  161.6918 C.3     1  UNL1        0.0738
      4 N         142.3708  140.5396  161.9581 N.3     1  UNL1       -0.2738
      5 C         143.2529  141.7227  161.6900 C.3     1  UNL1        0.0738
      6 C         142.6614  142.9934  161.1557 C.3     1  UNL1        0.0372
      7 N         139.9938  145.8811  158.3433 N.am    1  UNL1       -0.1773
      8 C         140.5852  144.6105  158.8777 C.2     1  UNL1        0.3266
      9 O         141.1655  143.5986  157.9346 O.2     1  UNL1       -0.2504
     10 N         140.5964  144.3516  160.3551 N.am    1  UNL1       -0.2600
     11 H         139.6129  146.5452  158.9623 H       1  UNL1        0.1841
     12 C         139.1645  147.2667  156.3080 C.3     1  UNL1        0.2056
     13 O         139.9826  146.1400  156.8659 O.3     1  UNL1       -0.2624
     14 C         140.0161  145.3634  161.2982 C.3     1  UNL1        0.1222
     15 C         139.5387  144.9370  162.6549 C.ar    1  UNL1        0.0047
     16 C         140.3840  144.8117  163.8877 C.ar    1  UNL1        0.0049
     17 C         139.5000  144.3584  165.0116 C.ar    1  UNL1        0.0352
     18 S         138.1084  144.2035  164.4733 S.2     1  UNL1       -0.0862
     19 C         138.1324  144.5611  163.0168 C.ar    1  UNL1        0.0328
     20 C         142.9623  139.2688  162.4924 C.3     1  UNL1        0.0592
     21 C         142.1644  137.9991  162.4614 C.3     1  UNL1        0.0174
     22 C         144.3517  139.2679  163.0578 C.3     1  UNL1        0.0372
     23 C         144.6058  139.8326  164.4239 C.3     1  UNL1        0.0911
     24 N         143.5683  139.6928  165.4982 N.am    1  UNL1       -0.3008
     25 C         142.6285  140.8262  165.7853 C.2     1  UNL1        0.2467
     26 O         142.7263  142.0992  164.9980 O.2     1  UNL1       -0.2701
     27 H         143.5042  138.8573  166.0149 H       1  UNL1        0.1497
     28 C         141.5910  140.6864  166.8595 C.ar    1  UNL1        0.0630
     29 C         140.3305  139.9196  166.5896 C.ar    1  UNL1       -0.0140
     30 C         140.1074  139.2925  165.2453 C.3     1  UNL1        0.0313
     31 C         139.2930  139.7798  167.6638 C.ar    1  UNL1        0.0267
     32 C         139.5160  140.4069  169.0081 C.ar    1  UNL1        0.1376
     33 CL        138.4785  140.2671  170.0823 Cl      1  UNL1       -0.0614
     34 N         140.7766  141.1738  169.2781 N.ar    1  UNL1       -0.2381
     35 C         141.8141  141.3135  168.2038 C.ar    1  UNL1        0.0643
     36 C         143.0747  142.0804  168.4738 C.3     1  UNL1        0.0523
@<TRIPOS>BOND
     1    12    13    1
     2    13     7    1
     3     7     8   am
     4     8     9    2
     5     8    10   am
     6    10    14    1
     7    14    15    1
     8    15    16   ar
     9    16    17   ar
    10    17    18   ar
    11    18    19   ar
    12    10     1    1
    13     1     2    1
    14     2     3    1
    15     3     4    1
    16     4    20    1
    17    20    21    1
    18    20    22    1
    19    22    23    1
    20    23    24    1
    21    24    25   am
    22    25    26    2
    23    25    28    1
    24    28    29   ar
    25    29    30    1
    26    29    31   ar
    27    31    32   ar
    28    32    33    1
    29    32    34   ar
    30    34    35   ar
    31    35    36    1
    32     4     5    1
    33     5     6    1
    34    19    15   ar
    35     6     1    1
    36    35    28   ar
    37     7    11    1
    38    24    27    1
@<TRIPOS>MOLECULE
*****
 36 38 0 0 0
SMALL
GASTEIGER

@<TRIPOS>ATOM
      1 C         140.4508  140.7749  166.5081 C.3     1  UNL1        0.0800
      2 C         141.7525  140.0504  166.3326 C.3     1  UNL1        0.0372
      3 C         142.9273  140.7562  165.7230 C.3     1  UNL1        0.0738
      4 N         142.8005  142.1865  165.2890 N.3     1  UNL1       -0.2738
      5 C         141.4988  142.9109  165.4645 C.3     1  UNL1        0.0738
      6 C         140.3240  142.2051  166.0741 C.3     1  UNL1        0.0372
      7 N         137.9151  139.3646  169.2157 N.am    1  UNL1       -0.1773
      8 C         139.0899  140.0703  168.6061 C.2     1  UNL1        0.3266
      9 O         140.0788  140.7774  169.4849 O.2     1  UNL1       -0.2504
     10 N         139.2759  140.0691  167.1177 N.am    1  UNL1       -0.2600
     11 H         137.2661  138.9005  168.6389 H       1  UNL1        0.1841
     12 C         136.4372  138.8888  171.2989 C.3     1  UNL1        0.2056
     13 O         137.7290  139.3658  170.7041 O.3     1  UNL1       -0.2624
     14 C         138.2871  139.3621  166.2389 C.3     1  UNL1        0.1222
     15 C         138.6877  138.9223  164.8618 C.ar    1  UNL1        0.0047
     16 C         138.3145  139.5998  163.5766 C.ar    1  UNL1        0.0049
     17 C         138.9279  138.8241  162.4486 C.ar    1  UNL1        0.0352
     18 S         139.6801  137.6673  163.0369 S.2     1  UNL1       -0.0862
     19 C         139.5317  137.7280  164.5282 C.ar    1  UNL1        0.0328
     20 C         143.9754  142.8922  164.6794 C.3     1  UNL1        0.0592
     21 C         143.9362  144.3782  164.4789 C.3     1  UNL1        0.0174
     22 C         145.1894  142.1120  164.2704 C.3     1  UNL1        0.0372
     23 C         145.4393  141.8189  162.8207 C.3     1  UNL1        0.0911
     24 N         144.3471  141.2352  161.9744 N.am    1  UNL1       -0.3008
     25 C         143.5495  142.1209  161.0635 C.2     1  UNL1        0.2467
     26 O         143.8443  143.5902  160.9990 O.2     1  UNL1       -0.2701
     27 H         144.1536  140.2708  162.0167 H       1  UNL1        0.1497
     28 C         142.4573  141.5372  160.2172 C.ar    1  UNL1        0.0630
     29 C         142.7818  140.9437  158.8784 C.ar    1  UNL1       -0.0140
     30 C         144.1986  140.9340  158.3859 C.3     1  UNL1        0.0313
     31 C         141.6896  140.3600  158.0320 C.ar    1  UNL1        0.0267
     32 C         140.2728  140.3697  158.5245 C.ar    1  UNL1        0.1376
     33 CL        139.1805  139.7860  157.6782 Cl      1  UNL1       -0.0614
     34 N         139.9482  140.9632  159.8634 N.ar    1  UNL1       -0.2381
     35 C         141.0405  141.5469  160.7097 C.ar    1  UNL1        0.0643
     36 C         140.7159  142.1403  162.0486 C.3     1  UNL1        0.0523
@<TRIPOS>BOND
     1    12    13    1
     2    13     7    1
     3     7     8   am
     4     8     9    2
     5     8    10   am
     6    10    14    1
     7    14    15    1
     8    15    16   ar
     9    16    17   ar
    10    17    18   ar
    11    18    19   ar
    12    10     1    1
    13     1     2    1
    14     2     3    1
    15     3     4    1
    16     4    20    1
    17    20    21    1
    18    20    22    1
    19    22    23    1
    20    23    24    1
    21    24    25   am
    22    25    26    2
    23    25    28    1
    24    28    29   ar
    25    29    30    1
    26    29    31   ar
    27    31    32   ar
    28    32    33    1
    29    32    34   ar
    30    34    35   ar
    31    35    36    1
    32     4     5    1
    33     5     6    1
    34    19    15   ar
    35     6     1    1
    36    35    28   ar
    37     7    11    1
    38    24    27    1
