@<TRIPOS>MOLECULE
*****
 27 29 0 0 0
SMALL
GASTEIGER

@<TRIPOS>ATOM
      1 C         140.3282  139.6320  166.9972 C.ar    1  UNL1       -0.0078
      2 C         141.2663  139.1593  165.9265 C.ar    1  UNL1        0.0001
      3 C         140.7239  138.5168  164.6842 C.ar    1  UNL1        0.0366
      4 C         139.2434  138.3471  164.5128 C.ar    1  UNL1        0.1390
      5 C         138.3053  138.8199  165.5836 C.ar    1  UNL1        0.0366
      6 C         138.8477  139.4623  166.8258 C.ar    1  UNL1        0.0001
      7 C         140.7651  142.1534  170.0306 C.3     1  UNL1        0.1314
      8 C         141.9553  141.5594  170.7238 C.3     1  UNL1        0.0251
      9 C         142.6031  140.3229  170.1748 C.3     1  UNL1        0.0036
     10 C         142.0608  139.6804  168.9326 C.3     1  UNL1        0.0203
     11 C         140.8706  140.2745  168.2395 C.3     1  UNL1        0.0771
     12 N         140.2228  141.5109  168.7885 N.3     1  UNL1       -0.2890
     13 H         139.2498  141.2729  168.9808 H       1  UNL1        0.1239
     14 N         138.8845  143.2777  171.4268 N.am    1  UNL1       -0.3277
     15 C         140.1173  143.3899  170.5796 C.2     1  UNL1        0.2336
     16 O         140.7022  144.7386  170.2815 O.2     1  UNL1       -0.2739
     17 H         138.4594  144.0893  171.7871 H       1  UNL1        0.1450
     18 H         138.5006  142.3925  171.6225 H       1  UNL1        0.1450
     19 O         138.7010  137.7047  163.2706 O.3     1  UNL1       -0.4706
     20 C         138.0836  138.5509  162.1969 C.3     1  UNL1        0.2321
     21 C         138.5070  139.9805  162.0324 C.ar    1  UNL1        0.0234
     22 C         139.7828  140.3070  161.3143 C.ar    1  UNL1       -0.0005
     23 C         140.2061  141.7366  161.1499 C.ar    1  UNL1        0.0021
     24 C         139.3537  142.8397  161.7034 C.ar    1  UNL1        0.0296
     25 C         138.0779  142.5132  162.4215 C.ar    1  UNL1        0.1399
     26 F         137.2254  143.6163  162.9751 F       1  UNL1       -0.2042
     27 C         137.6545  141.0836  162.5860 C.ar    1  UNL1        0.0289
@<TRIPOS>BOND
     1    14    15   am
     2    15    16    2
     3     7    15    1
     4     7     8    1
     5     8     9    1
     6     9    10    1
     7    10    11    1
     8    11     1    1
     9     1     2   ar
    10     2     3   ar
    11     3     4   ar
    12     4    19    1
    13    19    20    1
    14    20    21    1
    15    21    22   ar
    16    22    23   ar
    17    23    24   ar
    18    24    25   ar
    19    25    26    1
    20    25    27   ar
    21     4     5   ar
    22     5     6   ar
    23    11    12    1
    24    12     7    1
    25     6     1   ar
    26    27    21   ar
    27    14    17    1
    28    14    18    1
    29    12    13    1
@<TRIPOS>MOLECULE
*****
 27 29 0 0 0
SMALL
GASTEIGER

@<TRIPOS>ATOM
      1 C         140.5320  140.1051  166.7224 C.ar    1  UNL1       -0.0078
      2 C         141.2369  140.2019  165.4018 C.ar    1  UNL1        0.0001
      3 C         140.4867  139.9373  164.1301 C.ar    1  UNL1        0.0366
      4 C         139.0317  139.5759  164.1789 C.ar    1  UNL1        0.1390
      5 C         138.3269  139.4791  165.4995 C.ar    1  UNL1        0.0366
      6 C         139.0771  139.7437  166.7712 C.ar    1  UNL1        0.0001
      7 C         142.0715  142.0200  169.8390 C.3     1  UNL1        0.1314
      8 C         142.7824  140.8991  170.5375 C.3     1  UNL1        0.0251
      9 C         142.7432  139.5135  169.9643 C.3     1  UNL1        0.0036
     10 C         141.9931  139.2488  168.6926 C.3     1  UNL1        0.0203
     11 C         141.2822  140.3698  167.9941 C.3     1  UNL1        0.0771
     12 N         141.3214  141.7554  168.5673 N.3     1  UNL1       -0.2890
     13 H         140.3539  142.0330  168.7329 H       1  UNL1        0.1239
     14 N         143.3293  143.8790  171.1475 N.am    1  UNL1       -0.3277
     15 C         142.1106  143.4057  170.4122 C.2     1  UNL1        0.2336
     16 O         140.9311  144.3180  170.2500 O.2     1  UNL1       -0.2739
     17 H         143.3550  144.7884  171.5237 H       1  UNL1        0.1450
     18 H         144.1035  143.2802  171.2539 H       1  UNL1        0.1450
     19 O         138.2816  139.3112  162.9072 O.3     1  UNL1       -0.4706
     20 C         137.6286  140.4440  162.1722 C.3     1  UNL1        0.2321
     21 C         138.0106  141.8604  162.4850 C.ar    1  UNL1        0.0234
     22 C         138.9505  142.6009  161.5804 C.ar    1  UNL1       -0.0005
     23 C         139.3325  144.0173  161.8932 C.ar    1  UNL1        0.0021
     24 C         138.7747  144.6932  163.1106 C.ar    1  UNL1        0.0296
     25 C         137.8348  143.9527  164.0152 C.ar    1  UNL1        0.1399
     26 F         137.2770  144.6285  165.2325 F       1  UNL1       -0.2042
     27 C         137.4528  142.5363  163.7023 C.ar    1  UNL1        0.0289
@<TRIPOS>BOND
     1    14    15   am
     2    15    16    2
     3     7    15    1
     4     7     8    1
     5     8     9    1
     6     9    10    1
     7    10    11    1
     8    11     1    1
     9     1     2   ar
    10     2     3   ar
    11     3     4   ar
    12     4    19    1
    13    19    20    1
    14    20    21    1
    15    21    22   ar
    16    22    23   ar
    17    23    24   ar
    18    24    25   ar
    19    25    26    1
    20    25    27   ar
    21     4     5   ar
    22     5     6   ar
    23    11    12    1
    24    12     7    1
    25     6     1   ar
    26    27    21   ar
    27    14    17    1
    28    14    18    1
    29    12    13    1
@<TRIPOS>MOLECULE
*****
 27 29 0 0 0
SMALL
GASTEIGER

@<TRIPOS>ATOM
      1 C         140.5904  139.8593  166.0595 C.ar    1  UNL1       -0.0078
      2 C         141.3762  139.6309  164.8024 C.ar    1  UNL1        0.0001
      3 C         140.7488  138.9096  163.6464 C.ar    1  UNL1        0.0366
      4 C         139.3357  138.4168  163.7476 C.ar    1  UNL1        0.1390
      5 C         138.5500  138.6452  165.0048 C.ar    1  UNL1        0.0366
      6 C         139.1773  139.3664  166.1607 C.ar    1  UNL1        0.0001
      7 C         141.2851  141.1344  169.7529 C.3     1  UNL1        0.1314
      8 C         142.4724  142.0230  169.5274 C.3     1  UNL1        0.0251
      9 C         143.0323  142.1904  168.1460 C.3     1  UNL1        0.0036
     10 C         142.4050  141.4691  166.9900 C.3     1  UNL1        0.0203
     11 C         141.2178  140.5806  167.2155 C.3     1  UNL1        0.0771
     12 N         140.6579  140.4132  168.5970 N.3     1  UNL1       -0.2890
     13 H         140.7003  139.4173  168.8132 H       1  UNL1        0.1239
     14 N         140.1087  139.6614  171.5407 N.am    1  UNL1       -0.3277
     15 C         140.7252  140.9671  171.1344 C.2     1  UNL1        0.2336
     16 O         140.7818  142.1054  172.1096 O.2     1  UNL1       -0.2739
     17 H         139.7412  139.5516  172.4474 H       1  UNL1        0.1450
     18 H         140.0716  138.9143  170.9007 H       1  UNL1        0.1450
     19 O         138.7084  137.6955  162.5917 O.3     1  UNL1       -0.4706
     20 C         137.8555  138.4466  161.6127 C.3     1  UNL1        0.2321
     21 C         138.1908  139.8655  161.2600 C.ar    1  UNL1        0.0234
     22 C         139.0697  140.1573  160.0800 C.ar    1  UNL1       -0.0005
     23 C         139.4050  141.5761  159.7273 C.ar    1  UNL1        0.0021
     24 C         138.8615  142.7031  160.5545 C.ar    1  UNL1        0.0296
     25 C         137.9826  142.4113  161.7345 C.ar    1  UNL1        0.1399
     26 F         137.4390  143.5384  162.5618 F       1  UNL1       -0.2042
     27 C         137.6473  140.9925  162.0872 C.ar    1  UNL1        0.0289
@<TRIPOS>BOND
     1    14    15   am
     2    15    16    2
     3     7    15    1
     4     7     8    1
     5     8     9    1
     6     9    10    1
     7    10    11    1
     8    11     1    1
     9     1     2   ar
    10     2     3   ar
    11     3     4   ar
    12     4    19    1
    13    19    20    1
    14    20    21    1
    15    21    22   ar
    16    22    23   ar
    17    23    24   ar
    18    24    25   ar
    19    25    26    1
    20    25    27   ar
    21     4     5   ar
    22     5     6   ar
    23    11    12    1
    24    12     7    1
    25     6     1   ar
    26    27    21   ar
    27    14    17    1
    28    14    18    1
    29    12    13    1
@<TRIPOS>MOLECULE
*****
 27 29 0 0 0
SMALL
GASTEIGER

@<TRIPOS>ATOM
      1 C         140.4285  143.1321  165.9045 C.ar    1  UNL1       -0.0078
      2 C         139.2320  143.9229  165.4654 C.ar    1  UNL1        0.0001
      3 C         139.3298  144.8337  164.2775 C.ar    1  UNL1        0.0366
      4 C         140.6241  144.9536  163.5288 C.ar    1  UNL1        0.1390
      5 C         141.8206  144.1626  163.9681 C.ar    1  UNL1        0.0366
      6 C         141.7228  143.2519  165.1559 C.ar    1  UNL1        0.0001
      7 C         140.7499  141.7603  169.6147 C.3     1  UNL1        0.1314
      8 C         140.1353  140.3999  169.4681 C.3     1  UNL1        0.0251
      9 C         139.6185  139.9502  168.1337 C.3     1  UNL1        0.0036
     10 C         139.7162  140.8609  166.9459 C.3     1  UNL1        0.0203
     11 C         140.3308  142.2213  167.0924 C.3     1  UNL1        0.0771
     12 N         140.8477  142.6710  168.4268 N.3     1  UNL1       -0.2890
     13 H         140.3412  143.5232  168.6668 H       1  UNL1        0.1239
     14 N         142.6603  142.7518  171.0698 N.am    1  UNL1       -0.3277
     15 C         141.2668  142.2100  170.9491 C.2     1  UNL1        0.2336
     16 O         140.3902  142.1179  172.1627 O.2     1  UNL1       -0.2739
     17 H         142.9995  143.0469  171.9456 H       1  UNL1        0.1450
     18 H         143.2357  142.8122  170.2732 H       1  UNL1        0.1450
     19 O         140.7219  145.8643  162.3410 O.3     1  UNL1       -0.4706
     20 C         140.2045  145.4148  161.0067 C.3     1  UNL1        0.2321
     21 C         141.1493  144.8508  159.9872 C.ar    1  UNL1        0.0234
     22 C         141.9350  143.6113  160.2974 C.ar    1  UNL1       -0.0005
     23 C         142.8797  143.0474  159.2779 C.ar    1  UNL1        0.0021
     24 C         143.0388  143.7231  157.9482 C.ar    1  UNL1        0.0296
     25 C         142.2532  144.9626  157.6380 C.ar    1  UNL1        0.1399
     26 F         142.4123  145.6383  156.3082 F       1  UNL1       -0.2042
     27 C         141.3084  145.5265  158.6575 C.ar    1  UNL1        0.0289
@<TRIPOS>BOND
     1    14    15   am
     2    15    16    2
     3     7    15    1
     4     7     8    1
     5     8     9    1
     6     9    10    1
     7    10    11    1
     8    11     1    1
     9     1     2   ar
    10     2     3   ar
    11     3     4   ar
    12     4    19    1
    13    19    20    1
    14    20    21    1
    15    21    22   ar
    16    22    23   ar
    17    23    24   ar
    18    24    25   ar
    19    25    26    1
    20    25    27   ar
    21     4     5   ar
    22     5     6   ar
    23    11    12    1
    24    12     7    1
    25     6     1   ar
    26    27    21   ar
    27    14    17    1
    28    14    18    1
    29    12    13    1
@<TRIPOS>MOLECULE
*****
 27 29 0 0 0
SMALL
GASTEIGER

@<TRIPOS>ATOM
      1 C         140.5388  140.1325  166.6740 C.ar    1  UNL1       -0.0078
      2 C         139.0608  139.8809  166.7179 C.ar    1  UNL1        0.0001
      3 C         138.3052  139.6263  165.4473 C.ar    1  UNL1        0.0366
      4 C         139.0278  139.6233  164.1328 C.ar    1  UNL1        0.1390
      5 C         140.5060  139.8750  164.0890 C.ar    1  UNL1        0.0366
      6 C         141.2614  140.1295  165.3596 C.ar    1  UNL1        0.0001
      7 C         142.0825  142.0205  169.8050 C.3     1  UNL1        0.1314
      8 C         142.8053  140.8962  170.4858 C.3     1  UNL1        0.0251
      9 C         142.7727  139.5174  169.8961 C.3     1  UNL1        0.0036
     10 C         142.0172  139.2628  168.6255 C.3     1  UNL1        0.0203
     11 C         141.2944  140.3870  167.9447 C.3     1  UNL1        0.0771
     12 N         141.3271  141.7659  168.5344 N.3     1  UNL1       -0.2890
     13 H         140.3587  142.0346  168.7088 H       1  UNL1        0.1239
     14 N         143.3273  143.8654  171.1453 N.am    1  UNL1       -0.3277
     15 C         142.1152  143.3993  170.3947 C.2     1  UNL1        0.2336
     16 O         140.9358  144.3120  170.2337 O.2     1  UNL1       -0.2739
     17 H         143.3488  144.7704  171.5323 H       1  UNL1        0.1450
     18 H         144.1014  143.2664  171.2509 H       1  UNL1        0.1450
     19 O         138.2724  139.3688  162.8622 O.3     1  UNL1       -0.4706
     20 C         137.6844  140.5168  162.0965 C.3     1  UNL1        0.2321
     21 C         138.0967  141.9227  162.4185 C.ar    1  UNL1        0.0234
     22 C         137.4176  142.6676  163.5292 C.ar    1  UNL1       -0.0005
     23 C         137.8298  144.0735  163.8511 C.ar    1  UNL1        0.0021
     24 C         138.9211  144.7343  163.0623 C.ar    1  UNL1        0.0296
     25 C         139.6002  143.9894  161.9515 C.ar    1  UNL1        0.1399
     26 F         140.6915  144.6502  161.1626 F       1  UNL1       -0.2042
     27 C         139.1880  142.5835  161.6296 C.ar    1  UNL1        0.0289
@<TRIPOS>BOND
     1    14    15   am
     2    15    16    2
     3     7    15    1
     4     7     8    1
     5     8     9    1
     6     9    10    1
     7    10    11    1
     8    11     1    1
     9     1     2   ar
    10     2     3   ar
    11     3     4   ar
    12     4    19    1
    13    19    20    1
    14    20    21    1
    15    21    22   ar
    16    22    23   ar
    17    23    24   ar
    18    24    25   ar
    19    25    26    1
    20    25    27   ar
    21     4     5   ar
    22     5     6   ar
    23    11    12    1
    24    12     7    1
    25     6     1   ar
    26    27    21   ar
    27    14    17    1
    28    14    18    1
    29    12    13    1
@<TRIPOS>MOLECULE
*****
 27 29 0 0 0
SMALL
GASTEIGER

@<TRIPOS>ATOM
      1 C         140.4056  139.7411  165.3835 C.ar    1  UNL1       -0.0078
      2 C         141.3013  140.0954  164.2336 C.ar    1  UNL1        0.0001
      3 C         140.7417  140.1758  162.8442 C.ar    1  UNL1        0.0366
      4 C         139.2865  139.9020  162.6047 C.ar    1  UNL1        0.1390
      5 C         138.3908  139.5478  163.7547 C.ar    1  UNL1        0.0366
      6 C         138.9504  139.4674  165.1440 C.ar    1  UNL1        0.0001
      7 C         140.6606  139.9226  169.3398 C.3     1  UNL1        0.1314
      8 C         142.0841  139.4998  169.5517 C.3     1  UNL1        0.0251
      9 C         142.9481  139.1575  168.3743 C.3     1  UNL1        0.0036
     10 C         142.3886  139.2380  166.9849 C.3     1  UNL1        0.0203
     11 C         140.9652  139.6607  166.7729 C.3     1  UNL1        0.0771
     12 N         140.1012  140.0030  167.9504 N.3     1  UNL1       -0.2890
     13 H         139.2985  139.3743  167.9193 H       1  UNL1        0.1239
     14 N         138.3190  140.0132  170.4615 N.am    1  UNL1       -0.3277
     15 C         139.7966  140.2649  170.5172 C.2     1  UNL1        0.2336
     16 O         140.4103  140.8588  171.7503 O.2     1  UNL1       -0.2739
     17 H         137.7519  140.2378  171.2343 H       1  UNL1        0.1450
     18 H         137.9162  139.6233  169.6522 H       1  UNL1        0.1450
     19 O         138.7269  139.9825  161.2153 O.3     1  UNL1       -0.4706
     20 C         138.1444  141.2709  160.7149 C.3     1  UNL1        0.2321
     21 C         138.4656  142.5599  161.4116 C.ar    1  UNL1        0.0234
     22 C         139.5176  143.4721  160.8538 C.ar    1  UNL1       -0.0005
     23 C         139.8387  144.7610  161.5505 C.ar    1  UNL1        0.0021
     24 C         139.1078  145.1378  162.8051 C.ar    1  UNL1        0.0296
     25 C         138.0558  144.2256  163.3629 C.ar    1  UNL1        0.1399
     26 F         137.3250  144.6024  164.6174 F       1  UNL1       -0.2042
     27 C         137.7347  142.9367  162.6661 C.ar    1  UNL1        0.0289
@<TRIPOS>BOND
     1    14    15   am
     2    15    16    2
     3     7    15    1
     4     7     8    1
     5     8     9    1
     6     9    10    1
     7    10    11    1
     8    11     1    1
     9     1     2   ar
    10     2     3   ar
    11     3     4   ar
    12     4    19    1
    13    19    20    1
    14    20    21    1
    15    21    22   ar
    16    22    23   ar
    17    23    24   ar
    18    24    25   ar
    19    25    26    1
    20    25    27   ar
    21     4     5   ar
    22     5     6   ar
    23    11    12    1
    24    12     7    1
    25     6     1   ar
    26    27    21   ar
    27    14    17    1
    28    14    18    1
    29    12    13    1
@<TRIPOS>MOLECULE
*****
 27 29 0 0 0
SMALL
GASTEIGER

@<TRIPOS>ATOM
      1 C         141.7066  142.3170  166.0668 C.ar    1  UNL1       -0.0078
      2 C         141.0067  142.8162  164.8376 C.ar    1  UNL1        0.0001
      3 C         141.8013  143.3983  163.7063 C.ar    1  UNL1        0.0366
      4 C         143.2958  143.4811  163.8043 C.ar    1  UNL1        0.1390
      5 C         143.9957  142.9818  165.0335 C.ar    1  UNL1        0.0366
      6 C         143.2011  142.3998  166.1647 C.ar    1  UNL1        0.0001
      7 C         140.1166  141.8262  169.6698 C.3     1  UNL1        0.1314
      8 C         139.3227  140.5709  169.4607 C.3     1  UNL1        0.0251
      9 C         139.3235  139.8975  168.1203 C.3     1  UNL1        0.0036
     10 C         140.1180  140.4795  166.9890 C.3     1  UNL1        0.0203
     11 C         140.9119  141.7349  167.1981 C.3     1  UNL1        0.0771
     12 N         140.9112  142.4082  168.5385 N.3     1  UNL1       -0.2890
     13 H         140.5639  143.3560  168.3917 H       1  UNL1        0.1239
     14 N         138.9701  143.3835  171.4048 N.am    1  UNL1       -0.3277
     15 C         140.1159  142.4996  171.0101 C.2     1  UNL1        0.2336
     16 O         141.2610  142.2890  171.9559 O.2     1  UNL1       -0.2739
     17 H         138.9697  143.8254  172.2845 H       1  UNL1        0.1450
     18 H         138.2185  143.5217  170.7841 H       1  UNL1        0.1450
     19 O         144.0905  144.0631  162.6730 O.3     1  UNL1       -0.4706
     20 C         144.6700  143.1629  161.6225 C.3     1  UNL1        0.2321
     21 C         143.9695  141.8874  161.2582 C.ar    1  UNL1        0.0234
     22 C         142.8048  141.9147  160.3134 C.ar    1  UNL1       -0.0005
     23 C         142.1045  140.6393  159.9492 C.ar    1  UNL1        0.0021
     24 C         142.5688  139.3365  160.5299 C.ar    1  UNL1        0.0296
     25 C         143.7334  139.3091  161.4747 C.ar    1  UNL1        0.1399
     26 F         144.1977  138.0063  162.0553 F       1  UNL1       -0.2042
     27 C         144.4338  140.5846  161.8389 C.ar    1  UNL1        0.0289
@<TRIPOS>BOND
     1    14    15   am
     2    15    16    2
     3     7    15    1
     4     7     8    1
     5     8     9    1
     6     9    10    1
     7    10    11    1
     8    11     1    1
     9     1     2   ar
    10     2     3   ar
    11     3     4   ar
    12     4    19    1
    13    19    20    1
    14    20    21    1
    15    21    22   ar
    16    22    23   ar
    17    23    24   ar
    18    24    25   ar
    19    25    26    1
    20    25    27   ar
    21     4     5   ar
    22     5     6   ar
    23    11    12    1
    24    12     7    1
    25     6     1   ar
    26    27    21   ar
    27    14    17    1
    28    14    18    1
    29    12    13    1
@<TRIPOS>MOLECULE
*****
 27 29 0 0 0
SMALL
GASTEIGER

@<TRIPOS>ATOM
      1 C         140.3219  142.4030  166.0204 C.ar    1  UNL1       -0.0078
      2 C         139.1537  141.5112  165.7205 C.ar    1  UNL1        0.0001
      3 C         138.3415  141.7311  164.4787 C.ar    1  UNL1        0.0366
      4 C         138.6976  142.8429  163.5368 C.ar    1  UNL1        0.1390
      5 C         139.8659  143.7347  163.8367 C.ar    1  UNL1        0.0366
      6 C         140.6780  143.5147  165.0785 C.ar    1  UNL1        0.0001
      7 C         141.2725  141.5394  169.7755 C.3     1  UNL1        0.1314
      8 C         142.7583  141.7431  169.7458 C.3     1  UNL1        0.0251
      9 C         143.4319  142.1668  168.4743 C.3     1  UNL1        0.0036
     10 C         142.6198  142.3868  167.2325 C.3     1  UNL1        0.0203
     11 C         141.1341  142.1830  167.2622 C.3     1  UNL1        0.0771
     12 N         140.4604  141.7593  168.5337 N.3     1  UNL1       -0.2890
     13 H         139.9824  140.8804  168.3349 H       1  UNL1        0.1239
     14 N         140.0354  139.7312  171.1718 N.am    1  UNL1       -0.3277
     15 C         140.5988  141.1157  171.0469 C.2     1  UNL1        0.2336
     16 O         140.4886  142.0765  172.1935 O.2     1  UNL1       -0.2739
     17 H         139.5932  139.4531  172.0063 H       1  UNL1        0.1450
     18 H         140.1077  139.1005  170.4193 H       1  UNL1        0.1450
     19 O         137.8855  143.0628  162.2950 O.3     1  UNL1       -0.4706
     20 C         138.1778  142.2678  161.0571 C.3     1  UNL1        0.2321
     21 C         138.6558  140.8506  161.1713 C.ar    1  UNL1        0.0234
     22 C         137.6751  139.7476  161.4391 C.ar    1  UNL1       -0.0005
     23 C         138.1531  138.3305  161.5533 C.ar    1  UNL1        0.0021
     24 C         139.6117  138.0162  161.3998 C.ar    1  UNL1        0.0296
     25 C         140.5924  139.1192  161.1321 C.ar    1  UNL1        0.1399
     26 F         142.0511  138.8049  160.9786 F       1  UNL1       -0.2042
     27 C         140.1144  140.5363  161.0179 C.ar    1  UNL1        0.0289
@<TRIPOS>BOND
     1    14    15   am
     2    15    16    2
     3     7    15    1
     4     7     8    1
     5     8     9    1
     6     9    10    1
     7    10    11    1
     8    11     1    1
     9     1     2   ar
    10     2     3   ar
    11     3     4   ar
    12     4    19    1
    13    19    20    1
    14    20    21    1
    15    21    22   ar
    16    22    23   ar
    17    23    24   ar
    18    24    25   ar
    19    25    26    1
    20    25    27   ar
    21     4     5   ar
    22     5     6   ar
    23    11    12    1
    24    12     7    1
    25     6     1   ar
    26    27    21   ar
    27    14    17    1
    28    14    18    1
    29    12    13    1
@<TRIPOS>MOLECULE
*****
 27 29 0 0 0
SMALL
GASTEIGER

@<TRIPOS>ATOM
      1 C         142.6490  141.3104  166.1979 C.ar    1  UNL1       -0.0078
      2 C         142.1892  140.4525  165.0566 C.ar    1  UNL1        0.0001
      3 C         142.5229  140.8387  163.6461 C.ar    1  UNL1        0.0366
      4 C         143.3165  142.0828  163.3769 C.ar    1  UNL1        0.1390
      5 C         143.7763  142.9407  164.5183 C.ar    1  UNL1        0.0366
      6 C         143.4426  142.5545  165.9287 C.ar    1  UNL1        0.0001
      7 C         141.2751  141.5110  169.9157 C.3     1  UNL1        0.1314
      8 C         141.6479  140.1519  170.4294 C.3     1  UNL1        0.0251
      9 C         142.3544  139.1789  169.5326 C.3     1  UNL1        0.0036
     10 C         142.6881  139.5651  168.1221 C.3     1  UNL1        0.0203
     11 C         142.3153  140.9242  167.6085 C.3     1  UNL1        0.0771
     12 N         141.6088  141.8971  168.5053 N.3     1  UNL1       -0.2890
     13 H         140.7279  142.1327  168.0482 H       1  UNL1        0.1239
     14 N         140.0602  143.7817  170.2584 N.am    1  UNL1       -0.3277
     15 C         140.5686  142.4839  170.8125 C.2     1  UNL1        0.2336
     16 O         140.3706  142.1590  172.2635 O.2     1  UNL1       -0.2739
     17 H         139.5965  144.4203  170.8471 H       1  UNL1        0.1450
     18 H         140.1901  143.9950  169.3062 H       1  UNL1        0.1450
     19 O         143.6502  142.4690  161.9665 O.3     1  UNL1       -0.4706
     20 C         142.8532  143.5330  161.2717 C.3     1  UNL1        0.2321
     21 C         141.4648  143.8555  161.7390 C.ar    1  UNL1        0.0234
     22 C         141.2266  145.0499  162.6145 C.ar    1  UNL1       -0.0005
     23 C         139.8382  145.3724  163.0818 C.ar    1  UNL1        0.0021
     24 C         138.6880  144.5004  162.6735 C.ar    1  UNL1        0.0296
     25 C         138.9262  143.3060  161.7980 C.ar    1  UNL1        0.1399
     26 F         137.7759  142.4340  161.3898 F       1  UNL1       -0.2042
     27 C         140.3145  142.9835  161.3308 C.ar    1  UNL1        0.0289
@<TRIPOS>BOND
     1    14    15   am
     2    15    16    2
     3     7    15    1
     4     7     8    1
     5     8     9    1
     6     9    10    1
     7    10    11    1
     8    11     1    1
     9     1     2   ar
    10     2     3   ar
    11     3     4   ar
    12     4    19    1
    13    19    20    1
    14    20    21    1
    15    21    22   ar
    16    22    23   ar
    17    23    24   ar
    18    24    25   ar
    19    25    26    1
    20    25    27   ar
    21     4     5   ar
    22     5     6   ar
    23    11    12    1
    24    12     7    1
    25     6     1   ar
    26    27    21   ar
    27    14    17    1
    28    14    18    1
    29    12    13    1
