@<TRIPOS>MOLECULE
*****
 33 37 0 0 0
SMALL
GASTEIGER

@<TRIPOS>ATOM
      1 C         139.8542  140.0315  167.6745 C.ar    1  UNL1        0.0004
      2 C         138.4731  139.5070  167.4154 C.ar    1  UNL1        0.0031
      3 C         138.1738  138.7821  166.1367 C.ar    1  UNL1        0.0370
      4 C         139.2557  138.5817  165.1173 C.ar    1  UNL1        0.1415
      5 C         140.6369  139.1063  165.3764 C.ar    1  UNL1        0.0699
      6 C         140.9362  139.8311  166.6551 C.ar    1  UNL1        0.0061
      7 C         141.8513  139.0157  164.5008 C.ar    1  UNL1        0.1718
      8 N         143.1865  139.5860  164.8778 N.ar    1  UNL1       -0.1258
      9 N         144.1448  139.3009  163.7596 N.ar    1  UNL1       -0.0913
     10 C         143.4020  138.5544  162.6915 C.ar    1  UNL1        0.3249
     11 N         141.9845  138.3781  163.1495 N.ar    1  UNL1       -0.2613
     12 C         140.9362  137.6738  162.3403 C.3     1  UNL1        0.1592
     13 C         139.4957  137.4329  162.6824 C.3     1  UNL1        0.2299
     14 O         138.7479  137.8370  163.9183 O.3     1  UNL1       -0.4733
     15 C         140.4428  144.4806  170.2935 C.3     1  UNL1        0.0521
     16 C         140.4478  142.9810  170.2627 C.ar    1  UNL1        0.0594
     17 C         140.1485  142.2561  168.9840 C.ar    1  UNL1        0.0147
     18 C         140.1535  140.7564  168.9532 C.ar    1  UNL1        0.0027
     19 C         140.4578  139.9816  170.2011 C.ar    1  UNL1        0.0207
     20 C         140.7571  140.7065  171.4797 C.ar    1  UNL1        0.0984
     21 N         140.7521  142.2062  171.5106 N.ar    1  UNL1       -0.2481
     22 O         143.9759  138.0694  161.3932 O.3     1  UNL1       -0.4193
     23 C         143.4947  138.6505  160.0968 C.ar    1  UNL1        0.1826
     24 C         142.7945  137.7777  159.0978 C.ar    1  UNL1        0.0408
     25 C         142.3133  138.3589  157.8013 C.ar    1  UNL1        0.0033
     26 C         142.5323  139.8126  157.5039 C.ar    1  UNL1        0.0033
     27 C         143.2325  140.6854  158.5029 C.ar    1  UNL1        0.0404
     28 C         143.7137  140.1042  159.7994 C.ar    1  UNL1        0.1811
     29 O         144.4139  140.9770  160.7984 O.3     1  UNL1       -0.4013
     30 C         143.8366  142.3127  161.1624 C.3     1  UNL1        0.5754
     31 F         143.2592  143.6485  161.5264 F       1  UNL1       -0.1328
     32 F         142.6110  141.6362  161.7013 F       1  UNL1       -0.1328
     33 F         145.0621  142.9893  160.6235 F       1  UNL1       -0.1328
@<TRIPOS>BOND
     1    15    16    1
     2    16    17   ar
     3    17    18   ar
     4    18     1    1
     5     1     2   ar
     6     2     3   ar
     7     3     4   ar
     8     4     5   ar
     9     5     6   ar
    10     5     7    1
    11     7     8   ar
    12     8     9   ar
    13     9    10   ar
    14    10    22    1
    15    22    23    1
    16    23    24   ar
    17    24    25   ar
    18    25    26   ar
    19    26    27   ar
    20    27    28   ar
    21    28    29    1
    22    29    30    1
    23    30    31    1
    24    30    32    1
    25    30    33    1
    26    10    11   ar
    27    11    12    1
    28    12    13    1
    29    13    14    1
    30    18    19   ar
    31    19    20   ar
    32    20    21   ar
    33    21    16   ar
    34     6     1   ar
    35    11     7   ar
    36    14     4    1
    37    28    23   ar
@<TRIPOS>MOLECULE
*****
 33 37 0 0 0
SMALL
GASTEIGER

@<TRIPOS>ATOM
      1 C         139.8932  140.0519  167.5454 C.ar    1  UNL1        0.0004
      2 C         138.5965  139.3283  167.3335 C.ar    1  UNL1        0.0031
      3 C         138.3366  138.6191  166.0377 C.ar    1  UNL1        0.0370
      4 C         139.3733  138.6334  164.9537 C.ar    1  UNL1        0.1415
      5 C         140.6700  139.3570  165.1656 C.ar    1  UNL1        0.0699
      6 C         140.9300  140.0662  166.4615 C.ar    1  UNL1        0.0061
      7 C         141.8291  139.4944  164.2236 C.ar    1  UNL1        0.1718
      8 N         143.0805  140.2511  164.5577 N.ar    1  UNL1       -0.1258
      9 N         144.0025  140.1665  163.3776 N.ar    1  UNL1       -0.0913
     10 C         143.3210  139.3576  162.3140 C.ar    1  UNL1        0.3249
     11 N         141.9778  138.9422  162.8368 N.ar    1  UNL1       -0.2613
     12 C         141.0041  138.1161  162.0497 C.3     1  UNL1        0.1592
     13 C         139.6412  137.6383  162.4549 C.3     1  UNL1        0.2299
     14 O         138.9155  137.8685  163.7473 O.3     1  UNL1       -0.4733
     15 C         140.3449  144.4677  170.2467 C.3     1  UNL1        0.0521
     16 C         140.3791  142.9692  170.1920 C.ar    1  UNL1        0.0594
     17 C         140.1191  142.2598  168.8961 C.ar    1  UNL1        0.0147
     18 C         140.1533  140.7613  168.8413 C.ar    1  UNL1        0.0027
     19 C         140.4475  139.9719  170.0825 C.ar    1  UNL1        0.0207
     20 C         140.7075  140.6812  171.3783 C.ar    1  UNL1        0.0984
     21 N         140.6733  142.1798  171.4331 N.ar    1  UNL1       -0.2481
     22 O         143.8840  139.0228  160.9645 O.3     1  UNL1       -0.4193
     23 C         143.6811  139.9625  159.8131 C.ar    1  UNL1        0.1826
     24 C         143.8394  141.4405  160.0144 C.ar    1  UNL1        0.0408
     25 C         143.6366  142.3801  158.8628 C.ar    1  UNL1        0.0033
     26 C         143.2755  141.8418  157.5102 C.ar    1  UNL1        0.0033
     27 C         143.1172  140.3638  157.3089 C.ar    1  UNL1        0.0404
     28 C         143.3201  139.4241  158.4604 C.ar    1  UNL1        0.1811
     29 O         143.1618  137.9462  158.2591 O.3     1  UNL1       -0.4013
     30 C         142.0123  137.4178  157.4534 C.3     1  UNL1        0.5754
     31 F         140.8627  136.8893  156.6476 F       1  UNL1       -0.1328
     32 F         141.0488  138.0713  158.3992 F       1  UNL1       -0.1328
     33 F         142.9758  136.7642  156.5075 F       1  UNL1       -0.1328
@<TRIPOS>BOND
     1    15    16    1
     2    16    17   ar
     3    17    18   ar
     4    18     1    1
     5     1     2   ar
     6     2     3   ar
     7     3     4   ar
     8     4     5   ar
     9     5     6   ar
    10     5     7    1
    11     7     8   ar
    12     8     9   ar
    13     9    10   ar
    14    10    22    1
    15    22    23    1
    16    23    24   ar
    17    24    25   ar
    18    25    26   ar
    19    26    27   ar
    20    27    28   ar
    21    28    29    1
    22    29    30    1
    23    30    31    1
    24    30    32    1
    25    30    33    1
    26    10    11   ar
    27    11    12    1
    28    12    13    1
    29    13    14    1
    30    18    19   ar
    31    19    20   ar
    32    20    21   ar
    33    21    16   ar
    34     6     1   ar
    35    11     7   ar
    36    14     4    1
    37    28    23   ar
@<TRIPOS>MOLECULE
*****
 33 37 0 0 0
SMALL
GASTEIGER

@<TRIPOS>ATOM
      1 C         139.6996  140.7760  167.2862 C.ar    1  UNL1        0.0004
      2 C         138.9051  139.5487  166.9509 C.ar    1  UNL1        0.0031
      3 C         138.3315  139.3793  165.5754 C.ar    1  UNL1        0.0370
      4 C         138.5523  140.4372  164.5351 C.ar    1  UNL1        0.1415
      5 C         139.3468  141.6645  164.8704 C.ar    1  UNL1        0.0699
      6 C         139.9204  141.8339  166.2460 C.ar    1  UNL1        0.0061
      7 C         139.6829  142.8307  163.9891 C.ar    1  UNL1        0.1718
      8 N         140.4925  144.0071  164.4480 N.ar    1  UNL1       -0.1258
      9 N         140.6175  144.9612  163.2973 N.ar    1  UNL1       -0.0913
     10 C         139.8851  144.3744  162.1271 C.ar    1  UNL1        0.3249
     11 N         139.3076  143.0577  162.5546 N.ar    1  UNL1       -0.2613
     12 C         138.5034  142.1745  161.6473 C.3     1  UNL1        0.1592
     13 C         137.8759  140.8462  161.9503 C.3     1  UNL1        0.2299
     14 O         137.8977  140.0730  163.2356 O.3     1  UNL1       -0.4733
     15 C         143.0317  143.1144  170.5157 C.3     1  UNL1        0.0521
     16 C         141.9393  142.1147  170.2766 C.ar    1  UNL1        0.0594
     17 C         141.3656  141.9452  168.9010 C.ar    1  UNL1        0.0147
     18 C         140.2733  140.9455  168.6619 C.ar    1  UNL1        0.0027
     19 C         139.7545  140.1152  169.7983 C.ar    1  UNL1        0.0207
     20 C         140.3281  140.2846  171.1739 C.ar    1  UNL1        0.0984
     21 N         141.4206  141.2844  171.4130 N.ar    1  UNL1       -0.2481
     22 O         139.7535  144.9953  160.7680 O.3     1  UNL1       -0.4193
     23 C         140.4568  144.3838  159.5927 C.ar    1  UNL1        0.1826
     24 C         139.6953  144.0851  158.3353 C.ar    1  UNL1        0.0408
     25 C         140.3987  143.4736  157.1600 C.ar    1  UNL1        0.0033
     26 C         141.8633  143.1608  157.2420 C.ar    1  UNL1        0.0033
     27 C         142.6248  143.4595  158.4994 C.ar    1  UNL1        0.0404
     28 C         141.9215  144.0710  159.6747 C.ar    1  UNL1        0.1811
     29 O         142.6829  144.3697  160.9321 O.3     1  UNL1       -0.4013
     30 C         143.3577  143.2596  161.6820 C.3     1  UNL1        0.5754
     31 F         144.0325  142.1495  162.4319 F       1  UNL1       -0.1328
     32 F         144.4721  144.1907  162.0577 F       1  UNL1       -0.1328
     33 F         142.2433  142.3284  161.3062 F       1  UNL1       -0.1328
@<TRIPOS>BOND
     1    15    16    1
     2    16    17   ar
     3    17    18   ar
     4    18     1    1
     5     1     2   ar
     6     2     3   ar
     7     3     4   ar
     8     4     5   ar
     9     5     6   ar
    10     5     7    1
    11     7     8   ar
    12     8     9   ar
    13     9    10   ar
    14    10    22    1
    15    22    23    1
    16    23    24   ar
    17    24    25   ar
    18    25    26   ar
    19    26    27   ar
    20    27    28   ar
    21    28    29    1
    22    29    30    1
    23    30    31    1
    24    30    32    1
    25    30    33    1
    26    10    11   ar
    27    11    12    1
    28    12    13    1
    29    13    14    1
    30    18    19   ar
    31    19    20   ar
    32    20    21   ar
    33    21    16   ar
    34     6     1   ar
    35    11     7   ar
    36    14     4    1
    37    28    23   ar
@<TRIPOS>MOLECULE
*****
 33 37 0 0 0
SMALL
GASTEIGER

@<TRIPOS>ATOM
      1 C         139.9754  141.1569  167.3801 C.ar    1  UNL1        0.0004
      2 C         139.2174  139.8709  167.2335 C.ar    1  UNL1        0.0031
      3 C         138.5426  139.5420  165.9349 C.ar    1  UNL1        0.0370
      4 C         138.6259  140.4990  164.7829 C.ar    1  UNL1        0.1415
      5 C         139.3839  141.7850  164.9294 C.ar    1  UNL1        0.0699
      6 C         140.0587  142.1140  166.2280 C.ar    1  UNL1        0.0061
      7 C         139.5895  142.8703  163.9147 C.ar    1  UNL1        0.1718
      8 N         140.3751  144.1187  164.1875 N.ar    1  UNL1       -0.1258
      9 N         140.3589  144.9576  162.9441 N.ar    1  UNL1       -0.0913
     10 C         139.5634  144.2276  161.9028 C.ar    1  UNL1        0.3249
     11 N         139.0878  142.9377  162.5027 N.ar    1  UNL1       -0.2613
     12 C         138.2567  141.9363  161.7567 C.3     1  UNL1        0.1592
     13 C         137.7219  140.6203  162.2384 C.3     1  UNL1        0.2299
     14 O         137.8862  139.9807  163.5853 O.3     1  UNL1       -0.4733
     15 C         144.2374  142.5339  170.0145 C.3     1  UNL1        0.0521
     16 C         142.7813  142.1745  169.9959 C.ar    1  UNL1        0.0594
     17 C         142.1064  141.8454  168.6973 C.ar    1  UNL1        0.0147
     18 C         140.6503  141.4860  168.6787 C.ar    1  UNL1        0.0027
     19 C         139.8689  141.4555  169.9588 C.ar    1  UNL1        0.0207
     20 C         140.5436  141.7845  171.2574 C.ar    1  UNL1        0.0984
     21 N         141.9999  142.1440  171.2760 N.ar    1  UNL1       -0.2481
     22 O         139.2912  144.7041  160.5068 O.3     1  UNL1       -0.4193
     23 C         140.1427  144.2216  159.3701 C.ar    1  UNL1        0.1826
     24 C         141.5858  144.6230  159.2911 C.ar    1  UNL1        0.0408
     25 C         142.4374  144.1405  158.1544 C.ar    1  UNL1        0.0033
     26 C         141.8458  143.2565  157.0968 C.ar    1  UNL1        0.0033
     27 C         140.4026  142.8550  157.1758 C.ar    1  UNL1        0.0404
     28 C         139.5511  143.3376  158.3125 C.ar    1  UNL1        0.1811
     29 O         138.1080  142.9362  158.3915 O.3     1  UNL1       -0.4013
     30 C         137.6151  141.7524  157.6133 C.3     1  UNL1        0.5754
     31 F         137.1221  140.5686  156.8351 F       1  UNL1       -0.1328
     32 F         138.2441  140.8311  158.6162 F       1  UNL1       -0.1328
     33 F         136.9861  142.6736  156.6104 F       1  UNL1       -0.1328
@<TRIPOS>BOND
     1    15    16    1
     2    16    17   ar
     3    17    18   ar
     4    18     1    1
     5     1     2   ar
     6     2     3   ar
     7     3     4   ar
     8     4     5   ar
     9     5     6   ar
    10     5     7    1
    11     7     8   ar
    12     8     9   ar
    13     9    10   ar
    14    10    22    1
    15    22    23    1
    16    23    24   ar
    17    24    25   ar
    18    25    26   ar
    19    26    27   ar
    20    27    28   ar
    21    28    29    1
    22    29    30    1
    23    30    31    1
    24    30    32    1
    25    30    33    1
    26    10    11   ar
    27    11    12    1
    28    12    13    1
    29    13    14    1
    30    18    19   ar
    31    19    20   ar
    32    20    21   ar
    33    21    16   ar
    34     6     1   ar
    35    11     7   ar
    36    14     4    1
    37    28    23   ar
@<TRIPOS>MOLECULE
*****
 33 37 0 0 0
SMALL
GASTEIGER

@<TRIPOS>ATOM
      1 C         142.3948  140.0873  167.3249 C.ar    1  UNL1        0.0004
      2 C         143.1288  138.8128  167.0301 C.ar    1  UNL1        0.0031
      3 C         143.7638  138.6066  165.6869 C.ar    1  UNL1        0.0370
      4 C         143.6648  139.6748  164.6385 C.ar    1  UNL1        0.1415
      5 C         142.9308  140.9493  164.9334 C.ar    1  UNL1        0.0699
      6 C         142.2958  141.1555  166.2766 C.ar    1  UNL1        0.0061
      7 C         142.7151  142.1330  164.0377 C.ar    1  UNL1        0.1718
      8 N         141.9563  143.3578  164.4551 N.ar    1  UNL1       -0.1258
      9 N         141.9524  144.3163  163.3013 N.ar    1  UNL1       -0.0913
     10 C         142.7088  143.6839  162.1708 C.ar    1  UNL1        0.3249
     11 N         143.1802  142.3346  162.6259 N.ar    1  UNL1       -0.2613
     12 C         143.9758  141.4022  161.7612 C.3     1  UNL1        0.1592
     13 C         144.5028  140.0381  162.0946 C.3     1  UNL1        0.2299
     14 O         144.3644  139.2693  163.3752 O.3     1  UNL1       -0.4733
     15 C         138.1678  140.1206  170.3468 C.3     1  UNL1        0.0521
     16 C         139.6463  140.3102  170.1791 C.ar    1  UNL1        0.0594
     17 C         140.2813  140.1040  168.8359 C.ar    1  UNL1        0.0147
     18 C         141.7598  140.2936  168.6682 C.ar    1  UNL1        0.0027
     19 C         142.6033  140.6895  169.8437 C.ar    1  UNL1        0.0207
     20 C         141.9683  140.8958  171.1869 C.ar    1  UNL1        0.0984
     21 N         140.4898  140.7062  171.3546 N.ar    1  UNL1       -0.2481
     22 O         142.9512  144.2939  160.8220 O.3     1  UNL1       -0.4193
     23 C         142.0836  143.9123  159.6594 C.ar    1  UNL1        0.1826
     24 C         142.4860  142.7784  158.7637 C.ar    1  UNL1        0.0408
     25 C         141.6183  142.3969  157.6010 C.ar    1  UNL1        0.0033
     26 C         140.3485  143.1493  157.3342 C.ar    1  UNL1        0.0033
     27 C         139.9461  144.2833  158.2298 C.ar    1  UNL1        0.0404
     28 C         140.8138  144.6648  159.3925 C.ar    1  UNL1        0.1811
     29 O         140.4115  145.7987  160.2882 O.3     1  UNL1       -0.4013
     30 C         139.5576  145.5362  161.4931 C.3     1  UNL1        0.5754
     31 F         138.7037  145.2737  162.6981 F       1  UNL1       -0.1328
     32 F         139.7285  146.9625  161.9251 F       1  UNL1       -0.1328
     33 F         139.3866  144.1099  161.0612 F       1  UNL1       -0.1328
@<TRIPOS>BOND
     1    15    16    1
     2    16    17   ar
     3    17    18   ar
     4    18     1    1
     5     1     2   ar
     6     2     3   ar
     7     3     4   ar
     8     4     5   ar
     9     5     6   ar
    10     5     7    1
    11     7     8   ar
    12     8     9   ar
    13     9    10   ar
    14    10    22    1
    15    22    23    1
    16    23    24   ar
    17    24    25   ar
    18    25    26   ar
    19    26    27   ar
    20    27    28   ar
    21    28    29    1
    22    29    30    1
    23    30    31    1
    24    30    32    1
    25    30    33    1
    26    10    11   ar
    27    11    12    1
    28    12    13    1
    29    13    14    1
    30    18    19   ar
    31    19    20   ar
    32    20    21   ar
    33    21    16   ar
    34     6     1   ar
    35    11     7   ar
    36    14     4    1
    37    28    23   ar
@<TRIPOS>MOLECULE
*****
 33 37 0 0 0
SMALL
GASTEIGER

@<TRIPOS>ATOM
      1 C         139.7301  140.7380  166.8043 C.ar    1  UNL1        0.0004
      2 C         138.8796  139.5458  166.4800 C.ar    1  UNL1        0.0031
      3 C         138.2523  139.4187  165.1234 C.ar    1  UNL1        0.0370
      4 C         138.4755  140.4839  164.0912 C.ar    1  UNL1        0.1415
      5 C         139.3260  141.6761  164.4155 C.ar    1  UNL1        0.0699
      6 C         139.9533  141.8032  165.7721 C.ar    1  UNL1        0.0061
      7 C         139.6740  142.8430  163.5395 C.ar    1  UNL1        0.1718
      8 N         140.5420  143.9819  163.9861 N.ar    1  UNL1       -0.1258
      9 N         140.6617  144.9485  162.8454 N.ar    1  UNL1       -0.0913
     10 C         139.8677  144.4070  161.6938 C.ar    1  UNL1        0.3249
     11 N         139.2572  143.1057  162.1227 N.ar    1  UNL1       -0.2613
     12 C         138.3897  142.2666  161.2320 C.3     1  UNL1        0.1592
     13 C         137.7246  140.9574  161.5382 C.3     1  UNL1        0.2299
     14 O         137.7628  140.1641  162.8107 O.3     1  UNL1       -0.4733
     15 C         143.5954  142.4357  169.8338 C.3     1  UNL1        0.0521
     16 C         142.2901  141.7139  169.6757 C.ar    1  UNL1        0.0594
     17 C         141.6627  141.5868  168.3191 C.ar    1  UNL1        0.0147
     18 C         140.3574  140.8650  168.1610 C.ar    1  UNL1        0.0027
     19 C         139.6793  140.2702  169.3595 C.ar    1  UNL1        0.0207
     20 C         140.3065  140.3973  170.7161 C.ar    1  UNL1        0.0984
     21 N         141.6120  141.1191  170.8742 N.ar    1  UNL1       -0.2481
     22 O         139.7117  145.0534  160.3492 O.3     1  UNL1       -0.4193
     23 C         140.7470  144.8333  159.2863 C.ar    1  UNL1        0.1826
     24 C         141.8392  143.8276  159.5002 C.ar    1  UNL1        0.0408
     25 C         142.8746  143.6075  158.4373 C.ar    1  UNL1        0.0033
     26 C         142.8176  144.3930  157.1607 C.ar    1  UNL1        0.0033
     27 C         141.7254  145.3986  156.9469 C.ar    1  UNL1        0.0404
     28 C         140.6901  145.6187  158.0098 C.ar    1  UNL1        0.1811
     29 O         139.5979  146.6244  157.7959 O.3     1  UNL1       -0.4013
     30 C         138.9693  146.7727  156.4421 C.3     1  UNL1        0.5754
     31 F         138.3408  146.9209  155.0882 F       1  UNL1       -0.1328
     32 F         139.0645  148.2649  156.5613 F       1  UNL1       -0.1328
     33 F         138.8741  145.2804  156.3229 F       1  UNL1       -0.1328
@<TRIPOS>BOND
     1    15    16    1
     2    16    17   ar
     3    17    18   ar
     4    18     1    1
     5     1     2   ar
     6     2     3   ar
     7     3     4   ar
     8     4     5   ar
     9     5     6   ar
    10     5     7    1
    11     7     8   ar
    12     8     9   ar
    13     9    10   ar
    14    10    22    1
    15    22    23    1
    16    23    24   ar
    17    24    25   ar
    18    25    26   ar
    19    26    27   ar
    20    27    28   ar
    21    28    29    1
    22    29    30    1
    23    30    31    1
    24    30    32    1
    25    30    33    1
    26    10    11   ar
    27    11    12    1
    28    12    13    1
    29    13    14    1
    30    18    19   ar
    31    19    20   ar
    32    20    21   ar
    33    21    16   ar
    34     6     1   ar
    35    11     7   ar
    36    14     4    1
    37    28    23   ar
@<TRIPOS>MOLECULE
*****
 33 37 0 0 0
SMALL
GASTEIGER

@<TRIPOS>ATOM
      1 C         139.3366  143.2686  156.9217 C.ar    1  UNL1        0.0004
      2 C         138.9427  141.9592  156.3051 C.ar    1  UNL1        0.0031
      3 C         138.4279  140.8475  157.1706 C.ar    1  UNL1        0.0370
      4 C         138.3068  141.0453  158.6525 C.ar    1  UNL1        0.1415
      5 C         138.7007  142.3547  159.2691 C.ar    1  UNL1        0.0699
      6 C         139.2156  143.4664  158.4037 C.ar    1  UNL1        0.0061
      7 C         138.6592  142.7587  160.7130 C.ar    1  UNL1        0.1718
      8 N         139.0844  144.1101  161.2057 N.ar    1  UNL1       -0.1258
      9 N         138.9016  144.1396  162.6942 N.ar    1  UNL1       -0.0913
     10 C         138.3634  142.8063  163.1215 C.ar    1  UNL1        0.3249
     11 N         138.2136  141.9528  161.8972 N.ar    1  UNL1       -0.2613
     12 C         137.6994  140.5441  161.9297 C.3     1  UNL1        0.1592
     13 C         137.5039  139.5932  160.7863 C.3     1  UNL1        0.2299
     14 O         137.7742  139.8163  159.3277 O.3     1  UNL1       -0.4733
     15 C         139.0121  148.1688  155.2235 C.3     1  UNL1        0.0521
     16 C         139.6893  146.8305  155.2072 C.ar    1  UNL1        0.0594
     17 C         139.1743  145.7187  156.0726 C.ar    1  UNL1        0.0147
     18 C         139.8515  144.3804  156.0563 C.ar    1  UNL1        0.0027
     19 C         141.0437  144.1538  155.1745 C.ar    1  UNL1        0.0207
     20 C         141.5586  145.2655  154.3091 C.ar    1  UNL1        0.0984
     21 N         140.8814  146.6039  154.3254 N.ar    1  UNL1       -0.2481
     22 O         138.0331  142.3982  164.5267 O.3     1  UNL1       -0.4193
     23 C         139.1209  141.9297  165.4471 C.ar    1  UNL1        0.1826
     24 C         140.1754  142.8900  165.9117 C.ar    1  UNL1        0.0408
     25 C         141.2632  142.4215  166.8322 C.ar    1  UNL1        0.0033
     26 C         141.2965  140.9928  167.2880 C.ar    1  UNL1        0.0033
     27 C         140.2419  140.0326  166.8233 C.ar    1  UNL1        0.0404
     28 C         139.1541  140.5011  165.9029 C.ar    1  UNL1        0.1811
     29 O         138.0996  139.5408  165.4383 O.3     1  UNL1       -0.4013
     30 C         138.0206  138.1671  166.0353 C.3     1  UNL1        0.5754
     31 F         137.9415  136.7933  166.6324 F       1  UNL1       -0.1328
     32 F         137.2284  138.7128  167.1863 F       1  UNL1       -0.1328
     33 F         138.8127  137.6213  164.8843 F       1  UNL1       -0.1328
@<TRIPOS>BOND
     1    15    16    1
     2    16    17   ar
     3    17    18   ar
     4    18     1    1
     5     1     2   ar
     6     2     3   ar
     7     3     4   ar
     8     4     5   ar
     9     5     6   ar
    10     5     7    1
    11     7     8   ar
    12     8     9   ar
    13     9    10   ar
    14    10    22    1
    15    22    23    1
    16    23    24   ar
    17    24    25   ar
    18    25    26   ar
    19    26    27   ar
    20    27    28   ar
    21    28    29    1
    22    29    30    1
    23    30    31    1
    24    30    32    1
    25    30    33    1
    26    10    11   ar
    27    11    12    1
    28    12    13    1
    29    13    14    1
    30    18    19   ar
    31    19    20   ar
    32    20    21   ar
    33    21    16   ar
    34     6     1   ar
    35    11     7   ar
    36    14     4    1
    37    28    23   ar
@<TRIPOS>MOLECULE
*****
 33 37 0 0 0
SMALL
GASTEIGER

@<TRIPOS>ATOM
      1 C         140.3287  138.7061  157.0479 C.ar    1  UNL1        0.0004
      2 C         141.7424  138.9028  156.5868 C.ar    1  UNL1        0.0031
      3 C         142.8671  138.8623  157.5785 C.ar    1  UNL1        0.0370
      4 C         142.5781  138.6251  159.0311 C.ar    1  UNL1        0.1415
      5 C         141.1644  138.4285  159.4922 C.ar    1  UNL1        0.0699
      6 C         140.0397  138.4689  158.5005 C.ar    1  UNL1        0.0061
      7 C         140.6601  138.1805  160.8829 C.ar    1  UNL1        0.1718
      8 N         139.2088  137.9990  161.2156 N.ar    1  UNL1       -0.1258
      9 N         139.0968  137.7743  162.6945 N.ar    1  UNL1       -0.0913
     10 C         140.4789  137.8170  163.2757 C.ar    1  UNL1        0.3249
     11 N         141.4451  138.0680  162.1561 N.ar    1  UNL1       -0.2613
     12 C         142.9282  138.1757  162.3531 C.3     1  UNL1        0.1592
     13 C         143.9927  138.4224  161.3255 C.3     1  UNL1        0.2299
     14 O         143.8368  138.6224  159.8470 O.3     1  UNL1       -0.4733
     15 C         136.4539  141.2877  154.7411 C.3     1  UNL1        0.0521
     16 C         137.2665  140.0374  154.9028 C.ar    1  UNL1        0.0594
     17 C         138.3913  139.9969  155.8945 C.ar    1  UNL1        0.0147
     18 C         139.2039  138.7465  156.0562 C.ar    1  UNL1        0.0027
     19 C         138.8918  137.5366  155.2264 C.ar    1  UNL1        0.0207
     20 C         137.7671  137.5770  154.2348 C.ar    1  UNL1        0.0984
     21 N         136.9544  138.8274  154.0730 N.ar    1  UNL1       -0.2481
     22 O         140.8327  137.6397  164.7226 O.3     1  UNL1       -0.4193
     23 C         140.9525  138.8374  165.6177 C.ar    1  UNL1        0.1826
     24 C         142.3056  139.3927  165.9503 C.ar    1  UNL1        0.0408
     25 C         142.4254  140.5904  166.8454 C.ar    1  UNL1        0.0033
     26 C         141.1921  141.2327  167.4078 C.ar    1  UNL1        0.0033
     27 C         139.8389  140.6774  167.0752 C.ar    1  UNL1        0.0404
     28 C         139.7192  139.4797  166.1801 C.ar    1  UNL1        0.1811
     29 O         138.3661  138.9244  165.8474 O.3     1  UNL1       -0.4013
     30 C         137.8014  137.7919  166.6526 C.3     1  UNL1        0.5754
     31 F         137.2367  136.6592  167.4579 F       1  UNL1       -0.1328
     32 F         138.2525  136.8203  165.6026 F       1  UNL1       -0.1328
     33 F         137.3503  138.7634  167.7027 F       1  UNL1       -0.1328
@<TRIPOS>BOND
     1    15    16    1
     2    16    17   ar
     3    17    18   ar
     4    18     1    1
     5     1     2   ar
     6     2     3   ar
     7     3     4   ar
     8     4     5   ar
     9     5     6   ar
    10     5     7    1
    11     7     8   ar
    12     8     9   ar
    13     9    10   ar
    14    10    22    1
    15    22    23    1
    16    23    24   ar
    17    24    25   ar
    18    25    26   ar
    19    26    27   ar
    20    27    28   ar
    21    28    29    1
    22    29    30    1
    23    30    31    1
    24    30    32    1
    25    30    33    1
    26    10    11   ar
    27    11    12    1
    28    12    13    1
    29    13    14    1
    30    18    19   ar
    31    19    20   ar
    32    20    21   ar
    33    21    16   ar
    34     6     1   ar
    35    11     7   ar
    36    14     4    1
    37    28    23   ar
@<TRIPOS>MOLECULE
*****
 33 37 0 0 0
SMALL
GASTEIGER

@<TRIPOS>ATOM
      1 C         140.8392  144.4458  157.9717 C.ar    1  UNL1        0.0004
      2 C         142.2268  144.0526  157.5594 C.ar    1  UNL1        0.0031
      3 C         143.1766  143.4829  158.5710 C.ar    1  UNL1        0.0370
      4 C         142.7389  143.3065  159.9948 C.ar    1  UNL1        0.1415
      5 C         141.3513  143.6997  160.4071 C.ar    1  UNL1        0.0699
      6 C         140.4015  144.2694  159.3955 C.ar    1  UNL1        0.0061
      7 C         140.7173  143.6081  161.7634 C.ar    1  UNL1        0.1718
      8 N         139.3088  144.0383  162.0480 N.ar    1  UNL1       -0.1258
      9 N         139.0353  143.7968  163.5030 N.ar    1  UNL1       -0.0913
     10 C         140.2748  143.2172  164.1175 C.ar    1  UNL1        0.3249
     11 N         141.3144  143.1006  163.0425 N.ar    1  UNL1       -0.2613
     12 C         142.6928  142.5594  163.2811 C.3     1  UNL1        0.1592
     13 C         143.8147  142.3920  162.2996 C.3     1  UNL1        0.2299
     14 O         143.8352  142.7245  160.8370 O.3     1  UNL1       -0.4733
     15 C         138.9350  148.5323  155.3881 C.3     1  UNL1        0.0521
     16 C         138.9372  147.0588  155.6684 C.ar    1  UNL1        0.0594
     17 C         139.8871  146.4891  156.6799 C.ar    1  UNL1        0.0147
     18 C         139.8893  145.0155  156.9602 C.ar    1  UNL1        0.0027
     19 C         138.9416  144.1116  156.2289 C.ar    1  UNL1        0.0207
     20 C         137.9917  144.6812  155.2174 C.ar    1  UNL1        0.0984
     21 N         137.9895  146.1548  154.9371 N.ar    1  UNL1       -0.2481
     22 O         140.4449  142.8234  165.5549 O.3     1  UNL1       -0.4193
     23 C         139.7791  141.5849  166.0772 C.ar    1  UNL1        0.1826
     24 C         138.8796  140.7834  165.1836 C.ar    1  UNL1        0.0408
     25 C         138.2138  139.5448  165.7059 C.ar    1  UNL1        0.0033
     26 C         138.4477  139.1078  167.1216 C.ar    1  UNL1        0.0033
     27 C         139.3473  139.9092  168.0152 C.ar    1  UNL1        0.0404
     28 C         140.0130  141.1479  167.4928 C.ar    1  UNL1        0.1811
     29 O         140.9126  141.9493  168.3864 O.3     1  UNL1       -0.4013
     30 C         140.3334  142.7283  169.5299 C.3     1  UNL1        0.5754
     31 F         139.7542  143.5073  170.6735 F       1  UNL1       -0.1328
     32 F         140.6269  141.5860  170.4568 F       1  UNL1       -0.1328
     33 F         140.0399  143.8706  168.6031 F       1  UNL1       -0.1328
@<TRIPOS>BOND
     1    15    16    1
     2    16    17   ar
     3    17    18   ar
     4    18     1    1
     5     1     2   ar
     6     2     3   ar
     7     3     4   ar
     8     4     5   ar
     9     5     6   ar
    10     5     7    1
    11     7     8   ar
    12     8     9   ar
    13     9    10   ar
    14    10    22    1
    15    22    23    1
    16    23    24   ar
    17    24    25   ar
    18    25    26   ar
    19    26    27   ar
    20    27    28   ar
    21    28    29    1
    22    29    30    1
    23    30    31    1
    24    30    32    1
    25    30    33    1
    26    10    11   ar
    27    11    12    1
    28    12    13    1
    29    13    14    1
    30    18    19   ar
    31    19    20   ar
    32    20    21   ar
    33    21    16   ar
    34     6     1   ar
    35    11     7   ar
    36    14     4    1
    37    28    23   ar
