@<TRIPOS>MOLECULE
*****
 29 31 0 0 0
SMALL
GASTEIGER

@<TRIPOS>ATOM
      1 C         138.4364  140.7794  164.3843 C.ar    1  UNL1        0.0862
      2 S         138.6427  140.0728  165.6913 S.2     1  UNL1       -0.0720
      3 C         139.7626  140.7578  166.4169 C.ar    1  UNL1        0.0308
      4 C         140.2485  141.8878  165.5584 C.ar    1  UNL1        0.0128
      5 C         139.4289  141.9011  164.3022 C.ar    1  UNL1        0.0735
      6 N         136.8341  139.4778  160.9949 N.am    1  UNL1       -0.3131
      7 C         137.8537  139.8309  162.0368 C.2     1  UNL1        0.3017
      8 O         139.3104  139.5887  161.7731 O.2     1  UNL1       -0.2527
      9 N         137.4167  140.4262  163.3424 N.am    1  UNL1       -0.2633
     10 H         137.1209  139.0871  160.1380 H       1  UNL1        0.1465
     11 H         135.8780  139.6367  161.1680 H       1  UNL1        0.1465
     12 H         136.4607  140.5852  163.5155 H       1  UNL1        0.1569
     13 C         140.3019  140.3793  167.7645 C.ar    1  UNL1        0.0060
     14 C         141.7120  139.8851  167.8962 C.ar    1  UNL1        0.0005
     15 C         142.2512  139.5066  169.2437 C.ar    1  UNL1        0.0000
     16 C         141.3804  139.6223  170.4596 C.ar    1  UNL1        0.0000
     17 C         139.9703  140.1166  170.3279 C.ar    1  UNL1        0.0000
     18 C         139.4311  140.4951  168.9803 C.ar    1  UNL1        0.0005
     19 C         139.5759  142.8667  163.1637 C.2     1  UNL1        0.2476
     20 O         138.8573  144.1828  163.1989 O.2     1  UNL1       -0.2701
     21 N         140.4416  142.5160  161.9899 N.am    1  UNL1       -0.3011
     22 H         140.9132  141.6522  161.9668 H       1  UNL1        0.1497
     23 C         140.5886  143.4816  160.8514 C.3     1  UNL1        0.0876
     24 C         139.7542  143.3169  159.6159 C.3     1  UNL1        0.0224
     25 C         139.9012  144.2824  158.4775 C.3     1  UNL1        0.0188
     26 C         140.8827  145.4126  158.5745 C.3     1  UNL1        0.0687
     27 N         141.7171  145.5772  159.8101 N.3     1  UNL1       -0.2961
     28 C         141.5701  144.6117  160.9486 C.3     1  UNL1        0.0884
     29 H         141.5124  146.5046  160.1822 H       1  UNL1        0.1233
@<TRIPOS>BOND
     1     6     7   am
     2     7     8    2
     3     7     9   am
     4     9     1    1
     5     1     2   ar
     6     2     3   ar
     7     3    13    1
     8    13    14   ar
     9    14    15   ar
    10    15    16   ar
    11    16    17   ar
    12    17    18   ar
    13     3     4   ar
    14     4     5   ar
    15     5    19    1
    16    19    20    2
    17    19    21   am
    18    23    21    1
    19    23    24    1
    20    24    25    1
    21    25    26    1
    22    26    27    1
    23    27    28    1
    24     5     1   ar
    25    28    23    1
    26    18    13   ar
    27     6    10    1
    28     6    11    1
    29     9    12    1
    30    21    22    1
    31    27    29    1
@<TRIPOS>MOLECULE
*****
 29 31 0 0 0
SMALL
GASTEIGER

@<TRIPOS>ATOM
      1 C         139.6558  143.3457  164.7614 C.ar    1  UNL1        0.0862
      2 S         140.2377  143.0648  166.1150 S.2     1  UNL1       -0.0720
      3 C         140.1786  141.5840  166.3468 C.ar    1  UNL1        0.0308
      4 C         139.5601  140.9497  165.1364 C.ar    1  UNL1        0.0128
      5 C         139.2370  142.0385  164.1565 C.ar    1  UNL1        0.0735
      6 N         140.2443  146.4189  162.3203 N.am    1  UNL1       -0.3131
      7 C         140.3831  145.0680  162.9573 C.2     1  UNL1        0.3017
      8 O         141.3879  144.0885  162.4272 O.2     1  UNL1       -0.2527
      9 N         139.5170  144.6966  164.1244 N.am    1  UNL1       -0.2633
     10 H         140.8127  146.6627  161.5544 H       1  UNL1        0.1465
     11 H         139.5848  147.0618  162.6682 H       1  UNL1        0.1465
     12 H         138.8576  145.3395  164.4723 H       1  UNL1        0.1569
     13 C         140.6544  140.8639  167.5737 C.ar    1  UNL1        0.0060
     14 C         139.7780  140.7928  168.7889 C.ar    1  UNL1        0.0005
     15 C         140.2538  140.0727  170.0156 C.ar    1  UNL1        0.0000
     16 C         141.6061  139.4237  170.0272 C.ar    1  UNL1        0.0000
     17 C         142.4825  139.4948  168.8120 C.ar    1  UNL1        0.0000
     18 C         142.0067  140.2149  167.5852 C.ar    1  UNL1        0.0005
     19 C         138.6059  141.8527  162.8085 C.2     1  UNL1        0.2476
     20 O         137.1131  141.7750  162.6834 O.2     1  UNL1       -0.2701
     21 N         139.4675  141.7446  161.5854 N.am    1  UNL1       -0.3011
     22 H         140.4473  141.7956  161.6674 H       1  UNL1        0.1497
     23 C         138.8364  141.5589  160.2374 C.3     1  UNL1        0.0876
     24 C         138.7209  142.7215  159.2967 C.3     1  UNL1        0.0224
     25 C         138.0899  142.5357  157.9487 C.3     1  UNL1        0.0188
     26 C         137.5743  141.1873  157.5413 C.3     1  UNL1        0.0687
     27 N         137.6898  140.0247  158.4821 N.3     1  UNL1       -0.2961
     28 C         138.3209  140.2105  159.8301 C.3     1  UNL1        0.0884
     29 H         138.2319  139.3081  157.9994 H       1  UNL1        0.1233
@<TRIPOS>BOND
     1     6     7   am
     2     7     8    2
     3     7     9   am
     4     9     1    1
     5     1     2   ar
     6     2     3   ar
     7     3    13    1
     8    13    14   ar
     9    14    15   ar
    10    15    16   ar
    11    16    17   ar
    12    17    18   ar
    13     3     4   ar
    14     4     5   ar
    15     5    19    1
    16    19    20    2
    17    19    21   am
    18    23    21    1
    19    23    24    1
    20    24    25    1
    21    25    26    1
    22    26    27    1
    23    27    28    1
    24     5     1   ar
    25    28    23    1
    26    18    13   ar
    27     6    10    1
    28     6    11    1
    29     9    12    1
    30    21    22    1
    31    27    29    1
@<TRIPOS>MOLECULE
*****
 29 31 0 0 0
SMALL
GASTEIGER

@<TRIPOS>ATOM
      1 C         140.5721  144.3896  164.0283 C.ar    1  UNL1        0.0862
      2 S         139.9703  144.0447  165.3583 S.2     1  UNL1       -0.0720
      3 C         140.5731  142.7505  165.8183 C.ar    1  UNL1        0.0308
      4 C         141.5474  142.2954  164.7726 C.ar    1  UNL1        0.0128
      5 C         141.5468  143.3084  163.6663 C.ar    1  UNL1        0.0735
      6 N         139.1131  146.6815  161.1356 N.am    1  UNL1       -0.3131
      7 C         139.4303  145.4686  161.9590 C.2     1  UNL1        0.3017
      8 O         138.9229  144.1217  161.5366 O.2     1  UNL1       -0.2527
      9 N         140.2549  145.6025  163.2049 N.am    1  UNL1       -0.2633
     10 H         138.5718  146.5936  160.3179 H       1  UNL1        0.1465
     11 H         139.4461  147.5656  161.4128 H       1  UNL1        0.1465
     12 H         140.5879  146.4866  163.4821 H       1  UNL1        0.1569
     13 C         140.2570  142.0366  167.0992 C.ar    1  UNL1        0.0060
     14 C         140.4798  142.7222  168.4146 C.ar    1  UNL1        0.0005
     15 C         140.1637  142.0084  169.6953 C.ar    1  UNL1        0.0000
     16 C         139.6248  140.6090  169.6607 C.ar    1  UNL1        0.0000
     17 C         139.4019  139.9234  168.3454 C.ar    1  UNL1        0.0000
     18 C         139.7180  140.6372  167.0646 C.ar    1  UNL1        0.0005
     19 C         142.3755  143.2504  162.4173 C.2     1  UNL1        0.2476
     20 O         143.8087  143.6920  162.4469 O.2     1  UNL1       -0.2701
     21 N         141.7710  142.7508  161.1387 N.am    1  UNL1       -0.3011
     22 H         140.8303  142.4609  161.1192 H       1  UNL1        0.1497
     23 C         142.5996  142.6928  159.8897 C.3     1  UNL1        0.0876
     24 C         143.4729  141.5027  159.6236 C.3     1  UNL1        0.0224
     25 C         144.3015  141.4447  158.3747 C.3     1  UNL1        0.0188
     26 C         144.2569  142.5769  157.3917 C.3     1  UNL1        0.0687
     27 N         143.3835  143.7670  157.6578 N.3     1  UNL1       -0.2961
     28 C         142.5549  143.8250  158.9068 C.3     1  UNL1        0.0884
     29 H         142.7372  143.8395  156.8720 H       1  UNL1        0.1233
@<TRIPOS>BOND
     1     6     7   am
     2     7     8    2
     3     7     9   am
     4     9     1    1
     5     1     2   ar
     6     2     3   ar
     7     3    13    1
     8    13    14   ar
     9    14    15   ar
    10    15    16   ar
    11    16    17   ar
    12    17    18   ar
    13     3     4   ar
    14     4     5   ar
    15     5    19    1
    16    19    20    2
    17    19    21   am
    18    23    21    1
    19    23    24    1
    20    24    25    1
    21    25    26    1
    22    26    27    1
    23    27    28    1
    24     5     1   ar
    25    28    23    1
    26    18    13   ar
    27     6    10    1
    28     6    11    1
    29     9    12    1
    30    21    22    1
    31    27    29    1
@<TRIPOS>MOLECULE
*****
 29 31 0 0 0
SMALL
GASTEIGER

@<TRIPOS>ATOM
      1 C         139.8117  140.3921  167.9830 C.ar    1  UNL1        0.0862
      2 S         139.9366  140.4561  166.4896 S.2     1  UNL1       -0.0720
      3 C         138.7994  139.6791  165.8955 C.ar    1  UNL1        0.0308
      4 C         137.9716  139.1348  167.0217 C.ar    1  UNL1        0.0128
      5 C         138.5972  139.5754  168.3119 C.ar    1  UNL1        0.0735
      6 N         143.0261  141.0888  170.2037 N.am    1  UNL1       -0.3131
      7 C         142.0993  140.4486  169.2131 C.2     1  UNL1        0.3017
      8 O         142.5334  139.2248  168.4622 O.2     1  UNL1       -0.2527
      9 N         140.7385  141.0322  168.9735 N.am    1  UNL1       -0.2633
     10 H         143.9193  140.7057  170.3610 H       1  UNL1        0.1465
     11 H         142.7412  141.8920  170.6966 H       1  UNL1        0.1465
     12 H         140.4536  141.8355  169.4664 H       1  UNL1        0.1569
     13 C         138.5362  139.4811  164.4320 C.ar    1  UNL1        0.0060
     14 C         138.8680  138.1713  163.7808 C.ar    1  UNL1        0.0005
     15 C         138.6048  137.9734  162.3174 C.ar    1  UNL1        0.0000
     16 C         138.0098  139.0853  161.5053 C.ar    1  UNL1        0.0000
     17 C         137.6780  140.3951  162.1565 C.ar    1  UNL1        0.0000
     18 C         137.9412  140.5931  163.6199 C.ar    1  UNL1        0.0005
     19 C         138.0963  139.2556  169.6891 C.2     1  UNL1        0.2476
     20 O         138.7984  139.8143  170.8911 O.2     1  UNL1       -0.2701
     21 N         136.8933  138.3770  169.8644 N.am    1  UNL1       -0.3011
     22 H         136.4324  138.0102  169.0755 H       1  UNL1        0.1497
     23 C         136.3923  138.0571  171.2416 C.3     1  UNL1        0.0876
     24 C         136.8975  136.8409  171.9598 C.3     1  UNL1        0.0224
     25 C         136.3966  136.5211  173.3370 C.3     1  UNL1        0.0188
     26 C         135.3906  137.4174  173.9961 C.3     1  UNL1        0.0687
     27 N         134.8854  138.6336  173.2779 N.3     1  UNL1       -0.2961
     28 C         135.3863  138.9534  171.9007 C.3     1  UNL1        0.0884
     29 H         135.1082  139.4366  173.8661 H       1  UNL1        0.1233
@<TRIPOS>BOND
     1     6     7   am
     2     7     8    2
     3     7     9   am
     4     9     1    1
     5     1     2   ar
     6     2     3   ar
     7     3    13    1
     8    13    14   ar
     9    14    15   ar
    10    15    16   ar
    11    16    17   ar
    12    17    18   ar
    13     3     4   ar
    14     4     5   ar
    15     5    19    1
    16    19    20    2
    17    19    21   am
    18    23    21    1
    19    23    24    1
    20    24    25    1
    21    25    26    1
    22    26    27    1
    23    27    28    1
    24     5     1   ar
    25    28    23    1
    26    18    13   ar
    27     6    10    1
    28     6    11    1
    29     9    12    1
    30    21    22    1
    31    27    29    1
@<TRIPOS>MOLECULE
*****
 29 31 0 0 0
SMALL
GASTEIGER

@<TRIPOS>ATOM
      1 C         138.9138  141.6227  164.3347 C.ar    1  UNL1        0.0862
      2 S         139.3796  141.3768  165.7391 S.2     1  UNL1       -0.0720
      3 C         140.3696  142.4466  166.0932 C.ar    1  UNL1        0.0308
      4 C         140.5158  143.3537  164.9076 C.ar    1  UNL1        0.0128
      5 C         139.6161  142.8445  163.8207 C.ar    1  UNL1        0.0735
      6 N         137.3750  139.1404  161.6478 N.am    1  UNL1       -0.3131
      7 C         138.3685  139.9704  162.4053 C.2     1  UNL1        0.3017
      8 O         139.8101  139.9784  161.9910 O.2     1  UNL1       -0.2527
      9 N         137.9203  140.7926  163.5771 N.am    1  UNL1       -0.2633
     10 H         137.6691  138.6007  160.8786 H       1  UNL1        0.1465
     11 H         136.4288  139.1352  161.9197 H       1  UNL1        0.1465
     12 H         136.9741  140.7874  163.8490 H       1  UNL1        0.1569
     13 C         141.0875  142.5849  167.4031 C.ar    1  UNL1        0.0060
     14 C         142.5127  142.1343  167.5285 C.ar    1  UNL1        0.0005
     15 C         143.2304  142.2726  168.8383 C.ar    1  UNL1        0.0000
     16 C         142.5231  142.8617  170.0226 C.ar    1  UNL1        0.0000
     17 C         141.0979  143.3124  169.8972 C.ar    1  UNL1        0.0000
     18 C         140.3801  143.1740  168.5874 C.ar    1  UNL1        0.0005
     19 C         139.4481  143.4507  162.4590 C.2     1  UNL1        0.2476
     20 O         138.3451  144.4357  162.2073 O.2     1  UNL1       -0.2701
     21 N         140.3831  143.0720  161.3489 N.am    1  UNL1       -0.3011
     22 H         141.1070  142.4256  161.5140 H       1  UNL1        0.1497
     23 C         140.2151  143.6782  159.9871 C.3     1  UNL1        0.0876
     24 C         140.8603  144.9940  159.6671 C.3     1  UNL1        0.0224
     25 C         140.6923  145.6002  158.3055 C.3     1  UNL1        0.0188
     26 C         139.8791  144.8906  157.2637 C.3     1  UNL1        0.0687
     27 N         139.2339  143.5748  157.5837 N.3     1  UNL1       -0.2961
     28 C         139.4019  142.9686  158.9455 C.3     1  UNL1        0.0884
     29 H         139.5975  142.8977  156.9131 H       1  UNL1        0.1233
@<TRIPOS>BOND
     1     6     7   am
     2     7     8    2
     3     7     9   am
     4     9     1    1
     5     1     2   ar
     6     2     3   ar
     7     3    13    1
     8    13    14   ar
     9    14    15   ar
    10    15    16   ar
    11    16    17   ar
    12    17    18   ar
    13     3     4   ar
    14     4     5   ar
    15     5    19    1
    16    19    20    2
    17    19    21   am
    18    23    21    1
    19    23    24    1
    20    24    25    1
    21    25    26    1
    22    26    27    1
    23    27    28    1
    24     5     1   ar
    25    28    23    1
    26    18    13   ar
    27     6    10    1
    28     6    11    1
    29     9    12    1
    30    21    22    1
    31    27    29    1
@<TRIPOS>MOLECULE
*****
 29 31 0 0 0
SMALL
GASTEIGER

@<TRIPOS>ATOM
      1 C         142.6322  141.1458  168.8549 C.ar    1  UNL1        0.0862
      2 S         141.7068  141.4826  167.7235 S.2     1  UNL1       -0.0720
      3 C         141.0677  140.2098  167.2528 C.ar    1  UNL1        0.0308
      4 C         141.5981  139.0864  168.0933 C.ar    1  UNL1        0.0128
      5 C         142.5650  139.6648  169.0835 C.ar    1  UNL1        0.0735
      6 N         143.6751  144.0666  171.3310 N.am    1  UNL1       -0.3131
      7 C         142.8308  143.0933  170.5630 C.2     1  UNL1        0.3017
      8 O         141.3407  143.0944  170.7350 O.2     1  UNL1       -0.2527
      9 N         143.4766  142.1190  169.6230 N.am    1  UNL1       -0.2633
     10 H         143.2513  144.7060  171.9480 H       1  UNL1        0.1465
     11 H         144.6531  144.0658  171.2181 H       1  UNL1        0.1465
     12 H         144.4546  142.1183  169.5101 H       1  UNL1        0.1569
     13 C         140.0728  140.0829  166.1373 C.ar    1  UNL1        0.0060
     14 C         139.2783  141.2781  165.7013 C.ar    1  UNL1        0.0005
     15 C         138.2835  141.1511  164.5859 C.ar    1  UNL1        0.0000
     16 C         138.0831  139.8288  163.9066 C.ar    1  UNL1        0.0000
     17 C         138.8776  138.6336  164.3426 C.ar    1  UNL1        0.0000
     18 C         139.8724  138.7606  165.4580 C.ar    1  UNL1        0.0005
     19 C         143.3304  138.8970  170.1202 C.2     1  UNL1        0.2476
     20 O         143.8398  139.5951  171.3462 O.2     1  UNL1       -0.2701
     21 N         143.5863  137.4312  169.9309 N.am    1  UNL1       -0.3011
     22 H         143.2520  136.9730  169.1262 H       1  UNL1        0.1497
     23 C         144.3517  136.6635  170.9676 C.3     1  UNL1        0.0876
     24 C         145.8400  136.8203  171.0702 C.3     1  UNL1        0.0224
     25 C         146.6053  136.0526  172.1068 C.3     1  UNL1        0.0188
     26 C         145.8824  135.1280  173.0410 C.3     1  UNL1        0.0687
     27 N         144.3942  134.9712  172.9384 N.3     1  UNL1       -0.2961
     28 C         143.6288  135.7390  171.9017 C.3     1  UNL1        0.0884
     29 H         144.0073  135.2341  173.8448 H       1  UNL1        0.1233
@<TRIPOS>BOND
     1     6     7   am
     2     7     8    2
     3     7     9   am
     4     9     1    1
     5     1     2   ar
     6     2     3   ar
     7     3    13    1
     8    13    14   ar
     9    14    15   ar
    10    15    16   ar
    11    16    17   ar
    12    17    18   ar
    13     3     4   ar
    14     4     5   ar
    15     5    19    1
    16    19    20    2
    17    19    21   am
    18    23    21    1
    19    23    24    1
    20    24    25    1
    21    25    26    1
    22    26    27    1
    23    27    28    1
    24     5     1   ar
    25    28    23    1
    26    18    13   ar
    27     6    10    1
    28     6    11    1
    29     9    12    1
    30    21    22    1
    31    27    29    1
@<TRIPOS>MOLECULE
*****
 29 31 0 0 0
SMALL
GASTEIGER

@<TRIPOS>ATOM
      1 C         142.6786  139.5382  164.1612 C.ar    1  UNL1        0.0862
      2 S         142.4733  139.0892  165.5776 S.2     1  UNL1       -0.0720
      3 C         141.6300  140.1171  166.2721 C.ar    1  UNL1        0.0308
      4 C         141.3141  141.2014  165.2850 C.ar    1  UNL1        0.0128
      5 C         141.9621  140.8437  163.9804 C.ar    1  UNL1        0.0735
      6 N         143.5348  137.2467  161.0363 N.am    1  UNL1       -0.3131
      7 C         142.7507  137.9751  162.0873 C.2     1  UNL1        0.3017
      8 O         141.2548  137.8688  162.1153 O.2     1  UNL1       -0.2527
      9 N         143.4627  138.8098  163.1102 N.am    1  UNL1       -0.2633
     10 H         143.0675  136.6988  160.3649 H       1  UNL1        0.1465
     11 H         144.5166  137.3164  161.0179 H       1  UNL1        0.1465
     12 H         144.4445  138.8795  163.0918 H       1  UNL1        0.1569
     13 C         141.1813  140.0690  167.7027 C.ar    1  UNL1        0.0060
     14 C         139.7740  140.4451  168.0604 C.ar    1  UNL1        0.0005
     15 C         139.3254  140.3971  169.4909 C.ar    1  UNL1        0.0000
     16 C         140.2842  139.9729  170.5637 C.ar    1  UNL1        0.0000
     17 C         141.6915  139.5968  170.2061 C.ar    1  UNL1        0.0000
     18 C         142.1401  139.6449  168.7755 C.ar    1  UNL1        0.0005
     19 C         141.9040  141.6498  162.7167 C.2     1  UNL1        0.2476
     20 O         142.9221  141.4275  161.6378 O.2     1  UNL1       -0.2701
     21 N         140.8278  142.6782  162.5320 N.am    1  UNL1       -0.3011
     22 H         140.1596  142.8241  163.2401 H       1  UNL1        0.1497
     23 C         140.7696  143.4843  161.2684 C.3     1  UNL1        0.0876
     24 C         139.8454  143.0757  160.1599 C.3     1  UNL1        0.0224
     25 C         139.7872  143.8817  158.8963 C.3     1  UNL1        0.0188
     26 C         140.6533  145.0965  158.7411 C.3     1  UNL1        0.0687
     27 N         141.5776  145.5052  159.8496 N.3     1  UNL1       -0.2961
     28 C         141.6358  144.6991  161.1132 C.3     1  UNL1        0.0884
     29 H         141.3150  146.4538  160.1173 H       1  UNL1        0.1233
@<TRIPOS>BOND
     1     6     7   am
     2     7     8    2
     3     7     9   am
     4     9     1    1
     5     1     2   ar
     6     2     3   ar
     7     3    13    1
     8    13    14   ar
     9    14    15   ar
    10    15    16   ar
    11    16    17   ar
    12    17    18   ar
    13     3     4   ar
    14     4     5   ar
    15     5    19    1
    16    19    20    2
    17    19    21   am
    18    23    21    1
    19    23    24    1
    20    24    25    1
    21    25    26    1
    22    26    27    1
    23    27    28    1
    24     5     1   ar
    25    28    23    1
    26    18    13   ar
    27     6    10    1
    28     6    11    1
    29     9    12    1
    30    21    22    1
    31    27    29    1
@<TRIPOS>MOLECULE
*****
 29 31 0 0 0
SMALL
GASTEIGER

@<TRIPOS>ATOM
      1 C         144.0329  140.7092  163.8108 C.ar    1  UNL1        0.0862
      2 S         143.8735  140.2067  165.2151 S.2     1  UNL1       -0.0720
      3 C         143.1596  141.2620  166.0068 C.ar    1  UNL1        0.0308
      4 C         142.8778  142.4167  165.0918 C.ar    1  UNL1        0.0128
      5 C         143.4175  142.0751  163.7346 C.ar    1  UNL1        0.0735
      6 N         144.5151  138.6172  160.4730 N.am    1  UNL1       -0.3131
      7 C         143.8560  139.3516  161.6027 C.2     1  UNL1        0.3017
      8 O         142.3610  139.4627  161.6542 O.2     1  UNL1       -0.2527
      9 N         144.6920  139.9748  162.6810 N.am    1  UNL1       -0.2633
     10 H         143.9664  138.2081  159.7653 H       1  UNL1        0.1465
     11 H         145.4963  138.5443  160.4393 H       1  UNL1        0.1465
     12 H         145.6732  139.9019  162.6473 H       1  UNL1        0.1569
     13 C         142.7920  141.1774  167.4586 C.ar    1  UNL1        0.0060
     14 C         142.1114  139.9508  167.9897 C.ar    1  UNL1        0.0005
     15 C         141.7438  139.8662  169.4415 C.ar    1  UNL1        0.0000
     16 C         142.0569  141.0083  170.3622 C.ar    1  UNL1        0.0000
     17 C         142.7376  142.2349  169.8311 C.ar    1  UNL1        0.0000
     18 C         143.1051  142.3195  168.3793 C.ar    1  UNL1        0.0005
     19 C         143.3532  142.9464  162.5152 C.2     1  UNL1        0.2476
     20 O         144.2659  144.1301  162.3902 O.2     1  UNL1       -0.2701
     21 N         142.3761  142.6338  161.4208 N.am    1  UNL1       -0.3011
     22 H         141.7771  141.8569  161.5028 H       1  UNL1        0.1497
     23 C         142.3118  143.5051  160.2015 C.3     1  UNL1        0.0876
     24 C         141.2805  144.5904  160.1087 C.3     1  UNL1        0.0224
     25 C         141.2161  145.4616  158.8895 C.3     1  UNL1        0.0188
     26 C         142.1831  145.2476  157.7629 C.3     1  UNL1        0.0687
     27 N         143.2144  144.1623  157.8556 N.3     1  UNL1       -0.2961
     28 C         143.2787  143.2911  159.0750 C.3     1  UNL1        0.0884
     29 H         144.1251  144.6132  157.7675 H       1  UNL1        0.1233
@<TRIPOS>BOND
     1     6     7   am
     2     7     8    2
     3     7     9   am
     4     9     1    1
     5     1     2   ar
     6     2     3   ar
     7     3    13    1
     8    13    14   ar
     9    14    15   ar
    10    15    16   ar
    11    16    17   ar
    12    17    18   ar
    13     3     4   ar
    14     4     5   ar
    15     5    19    1
    16    19    20    2
    17    19    21   am
    18    23    21    1
    19    23    24    1
    20    24    25    1
    21    25    26    1
    22    26    27    1
    23    27    28    1
    24     5     1   ar
    25    28    23    1
    26    18    13   ar
    27     6    10    1
    28     6    11    1
    29     9    12    1
    30    21    22    1
    31    27    29    1
@<TRIPOS>MOLECULE
*****
 29 31 0 0 0
SMALL
GASTEIGER

@<TRIPOS>ATOM
      1 C         140.2702  142.0653  164.2716 C.ar    1  UNL1        0.0862
      2 S         140.3204  141.9427  165.7657 S.2     1  UNL1       -0.0720
      3 C         141.6880  141.4572  166.1453 C.ar    1  UNL1        0.0308
      4 C         142.4831  141.2799  164.8857 C.ar    1  UNL1        0.0128
      5 C         141.6068  141.6557  163.7277 C.ar    1  UNL1        0.0735
      6 N         137.6334  144.4356  162.4887 N.am    1  UNL1       -0.3131
      7 C         138.8130  143.9828  163.2970 C.2     1  UNL1        0.3017
      8 O         139.7151  144.9947  163.9391 O.2     1  UNL1       -0.2527
      9 N         139.0906  142.5181  163.4632 N.am    1  UNL1       -0.2633
     10 H         137.4512  145.3969  162.3796 H       1  UNL1        0.1465
     11 H         137.0414  143.7714  162.0672 H       1  UNL1        0.1465
     12 H         138.4985  141.8540  163.0418 H       1  UNL1        0.1569
     13 C         142.1751  141.1952  167.5396 C.ar    1  UNL1        0.0060
     14 C         141.8586  139.8923  168.2121 C.ar    1  UNL1        0.0005
     15 C         142.3456  139.6303  169.6064 C.ar    1  UNL1        0.0000
     16 C         143.1491  140.6712  170.3282 C.ar    1  UNL1        0.0000
     17 C         143.4656  141.9740  169.6557 C.ar    1  UNL1        0.0000
     18 C         142.9786  142.2360  168.2614 C.ar    1  UNL1        0.0005
     19 C         141.9984  141.6269  162.2800 C.2     1  UNL1        0.2476
     20 O         140.9827  141.9410  161.2219 O.2     1  UNL1       -0.2701
     21 N         143.4058  141.2841  161.8904 N.am    1  UNL1       -0.3011
     22 H         144.0725  141.0780  162.5849 H       1  UNL1        0.1497
     23 C         143.7974  141.2553  160.4427 C.3     1  UNL1        0.0876
     24 C         144.2165  142.5201  159.7538 C.3     1  UNL1        0.0224
     25 C         144.6081  142.4914  158.3062 C.3     1  UNL1        0.0188
     26 C         144.5806  141.1978  157.5473 C.3     1  UNL1        0.0687
     27 N         144.1614  139.9330  158.2362 N.3     1  UNL1       -0.2961
     28 C         143.7698  139.9618  159.6839 C.3     1  UNL1        0.0884
     29 H         144.9417  139.2811  158.1551 H       1  UNL1        0.1233
@<TRIPOS>BOND
     1     6     7   am
     2     7     8    2
     3     7     9   am
     4     9     1    1
     5     1     2   ar
     6     2     3   ar
     7     3    13    1
     8    13    14   ar
     9    14    15   ar
    10    15    16   ar
    11    16    17   ar
    12    17    18   ar
    13     3     4   ar
    14     4     5   ar
    15     5    19    1
    16    19    20    2
    17    19    21   am
    18    23    21    1
    19    23    24    1
    20    24    25    1
    21    25    26    1
    22    26    27    1
    23    27    28    1
    24     5     1   ar
    25    28    23    1
    26    18    13   ar
    27     6    10    1
    28     6    11    1
    29     9    12    1
    30    21    22    1
    31    27    29    1
