@<TRIPOS>MOLECULE
*****
 30 37 0 0 0
SMALL
GASTEIGER

@<TRIPOS>ATOM
      1 C         141.7174  143.3690  164.5361 C.ar    1  UNL1        0.1725
      2 N         143.0460  143.8105  163.9976 N.ar    1  UNL1       -0.1283
      3 N         142.7943  144.7271  162.8372 N.ar    1  UNL1       -0.1267
      4 C         141.3102  144.8521  162.6586 C.ar    1  UNL1        0.1919
      5 C         140.4790  145.6219  161.6755 C.ar    1  UNL1        0.1382
      6 N         138.9821  145.5522  161.7424 N.ar    1  UNL1       -0.2342
      7 C         138.3165  144.7129  162.7924 C.ar    1  UNL1        0.1552
      8 C         139.1478  143.9432  163.7755 C.ar    1  UNL1        0.2320
      9 N         140.6446  144.0128  163.7086 N.ar    1  UNL1       -0.2417
     10 C         141.0644  140.5994  168.0223 C.ar    1  UNL1        0.1443
     11 C         140.4378  141.9622  168.0194 C.ar    1  UNL1        0.0372
     12 C         140.6554  142.8854  166.8574 C.ar    1  UNL1        0.0062
     13 C         141.4997  142.4458  165.6982 C.ar    1  UNL1        0.0365
     14 C         142.1264  141.0829  165.7010 C.ar    1  UNL1        0.0062
     15 C         141.9087  140.1598  166.8630 C.ar    1  UNL1        0.0372
     16 O         140.8467  139.6763  169.1843 O.3     1  UNL1       -0.4236
     17 F         138.4658  140.1166  170.1261 F       1  UNL1       -0.1550
     18 C         139.9536  140.0920  170.3154 C.3     1  UNL1        0.5087
     19 F         140.5483  140.4831  171.6358 F       1  UNL1       -0.1550
     20 O         138.4822  143.1038  164.8255 O.3     1  UNL1       -0.4600
     21 C         137.9132  141.7636  164.4649 C.3     1  UNL1        0.2071
     22 C         138.8164  140.6749  163.9661 C.3     1  UNL1        0.0474
     23 C         138.9812  139.4139  164.7617 C.3     1  UNL1        0.0036
     24 C         139.9582  138.9007  163.7458 C.3     1  UNL1        0.0001
     25 C         140.9354  138.3875  162.7299 C.3     1  UNL1        0.0000
     26 C         141.1001  137.1266  163.5254 C.3     1  UNL1        0.0000
     27 C         140.1230  137.6398  164.5413 C.3     1  UNL1        0.0000
     28 C         139.1459  138.1529  165.5571 C.3     1  UNL1        0.0001
     29 C         138.1689  138.6660  166.5729 C.3     1  UNL1        0.0000
     30 C         138.0041  139.9270  165.7775 C.3     1  UNL1        0.0001
@<TRIPOS>BOND
     1    17    18    1
     2    18    19    1
     3    18    16    1
     4    16    10    1
     5    10    11   ar
     6    11    12   ar
     7    12    13   ar
     8    13     1    1
     9     1     2   ar
    10     2     3   ar
    11     3     4   ar
    12     4     5   ar
    13     5     6   ar
    14     6     7   ar
    15     7     8   ar
    16     8    20    1
    17    20    21    1
    18    21    22    1
    19    22    23    1
    20    23    24    1
    21    24    25    1
    22    25    26    1
    23    26    27    1
    24    27    28    1
    25    28    29    1
    26    29    30    1
    27     8     9   ar
    28    13    14   ar
    29    14    15   ar
    30    15    10   ar
    31     9     1   ar
    32     9     4   ar
    33    28    23    1
    34    30    23    1
    35    27    24    1
    36    30    25    1
    37    29    26    1
@<TRIPOS>MOLECULE
*****
 30 37 0 0 0
SMALL
GASTEIGER

@<TRIPOS>ATOM
      1 C         144.0311  141.4802  164.5116 C.ar    1  UNL1        0.1725
      2 N         145.4717  141.1440  164.2635 N.ar    1  UNL1       -0.1283
      3 N         145.8391  141.6550  162.9019 N.ar    1  UNL1       -0.1267
      4 C         144.6255  142.3070  162.3085 C.ar    1  UNL1        0.1919
      5 C         144.3937  142.9852  160.9909 C.ar    1  UNL1        0.1382
      6 N         143.0443  143.5553  160.6680 N.ar    1  UNL1       -0.2342
      7 C         141.9269  143.4473  161.6628 C.ar    1  UNL1        0.1552
      8 C         142.1588  142.7691  162.9805 C.ar    1  UNL1        0.2320
      9 N         143.5081  142.1990  163.3033 N.ar    1  UNL1       -0.2417
     10 C         141.6891  140.5039  168.2281 C.ar    1  UNL1        0.1443
     11 C         142.0454  139.4161  167.2587 C.ar    1  UNL1        0.0372
     12 C         142.8260  139.7416  166.0199 C.ar    1  UNL1        0.0062
     13 C         143.2504  141.1547  165.7504 C.ar    1  UNL1        0.0365
     14 C         142.8941  142.2426  166.7198 C.ar    1  UNL1        0.0062
     15 C         142.1135  141.9172  167.9587 C.ar    1  UNL1        0.0372
     16 O         140.9084  140.1785  169.4669 O.3     1  UNL1       -0.4236
     17 F         139.5241  142.3282  169.9278 F       1  UNL1       -0.1550
     18 C         139.5879  140.8443  169.7178 C.3     1  UNL1        0.5087
     19 F         138.3313  140.0262  169.7587 F       1  UNL1       -0.1550
     20 O         141.0414  142.6611  163.9753 O.3     1  UNL1       -0.4600
     21 C         139.9101  141.7067  163.7318 C.3     1  UNL1        0.2071
     22 C         139.5259  140.7137  164.7884 C.3     1  UNL1        0.0474
     23 C         139.4935  139.2493  164.4651 C.3     1  UNL1        0.0036
     24 C         138.6546  138.9990  165.6831 C.3     1  UNL1        0.0001
     25 C         137.8156  138.7487  166.9011 C.3     1  UNL1        0.0000
     26 C         137.7831  137.2843  166.5778 C.3     1  UNL1        0.0000
     27 C         138.6221  137.5347  165.3598 C.3     1  UNL1        0.0000
     28 C         139.4610  137.7849  164.1418 C.3     1  UNL1        0.0001
     29 C         140.2999  138.0352  162.9239 C.3     1  UNL1        0.0000
     30 C         140.3324  139.4996  163.2471 C.3     1  UNL1        0.0001
@<TRIPOS>BOND
     1    17    18    1
     2    18    19    1
     3    18    16    1
     4    16    10    1
     5    10    11   ar
     6    11    12   ar
     7    12    13   ar
     8    13     1    1
     9     1     2   ar
    10     2     3   ar
    11     3     4   ar
    12     4     5   ar
    13     5     6   ar
    14     6     7   ar
    15     7     8   ar
    16     8    20    1
    17    20    21    1
    18    21    22    1
    19    22    23    1
    20    23    24    1
    21    24    25    1
    22    25    26    1
    23    26    27    1
    24    27    28    1
    25    28    29    1
    26    29    30    1
    27     8     9   ar
    28    13    14   ar
    29    14    15   ar
    30    15    10   ar
    31     9     1   ar
    32     9     4   ar
    33    28    23    1
    34    30    23    1
    35    27    24    1
    36    30    25    1
    37    29    26    1
@<TRIPOS>MOLECULE
*****
 30 37 0 0 0
SMALL
GASTEIGER

@<TRIPOS>ATOM
      1 C         139.7171  139.0578  165.1500 C.ar    1  UNL1        0.1725
      2 N         139.6925  137.6318  164.6855 N.ar    1  UNL1       -0.1283
      3 N         138.9373  137.5791  163.3905 N.ar    1  UNL1       -0.1267
      4 C         138.4952  138.9726  163.0547 C.ar    1  UNL1        0.1919
      5 C         137.7161  139.5274  161.8993 C.ar    1  UNL1        0.1382
      6 N         137.4188  140.9960  161.8313 N.ar    1  UNL1       -0.2342
      7 C         137.9007  141.9099  162.9187 C.ar    1  UNL1        0.1552
      8 C         138.6799  141.3552  164.0742 C.ar    1  UNL1        0.2320
      9 N         138.9771  139.8865  164.1422 N.ar    1  UNL1       -0.2417
     10 C         141.6681  140.5824  168.9076 C.ar    1  UNL1        0.1443
     11 C         142.5120  140.1770  167.7357 C.ar    1  UNL1        0.0372
     12 C         141.8617  139.6688  166.4832 C.ar    1  UNL1        0.0062
     13 C         140.3674  139.5660  166.4025 C.ar    1  UNL1        0.0365
     14 C         139.5234  139.9715  167.5745 C.ar    1  UNL1        0.0062
     15 C         140.1738  140.4796  168.8270 C.ar    1  UNL1        0.0372
     16 O         142.3184  141.0906  170.1602 O.3     1  UNL1       -0.4236
     17 F         144.5428  142.4225  169.9922 F       1  UNL1       -0.1550
     18 C         143.0510  142.3995  170.1469 C.3     1  UNL1        0.5087
     19 F         142.2916  143.6854  170.2884 F       1  UNL1       -0.1550
     20 O         139.1618  142.2691  165.1616 O.3     1  UNL1       -0.4600
     21 C         140.4504  143.0185  164.9953 C.3     1  UNL1        0.2071
     22 C         141.5594  142.4305  164.1740 C.3     1  UNL1        0.0474
     23 C         142.8591  143.1660  164.0326 C.3     1  UNL1        0.0036
     24 C         143.5969  141.8601  164.0220 C.3     1  UNL1        0.0001
     25 C         144.3348  140.5541  164.0114 C.3     1  UNL1        0.0000
     26 C         145.6344  141.2895  163.8699 C.3     1  UNL1        0.0000
     27 C         144.8965  142.5955  163.8806 C.3     1  UNL1        0.0000
     28 C         144.1587  143.9014  163.8912 C.3     1  UNL1        0.0001
     29 C         143.4209  145.2073  163.9018 C.3     1  UNL1        0.0000
     30 C         142.1213  144.4719  164.0432 C.3     1  UNL1        0.0001
@<TRIPOS>BOND
     1    17    18    1
     2    18    19    1
     3    18    16    1
     4    16    10    1
     5    10    11   ar
     6    11    12   ar
     7    12    13   ar
     8    13     1    1
     9     1     2   ar
    10     2     3   ar
    11     3     4   ar
    12     4     5   ar
    13     5     6   ar
    14     6     7   ar
    15     7     8   ar
    16     8    20    1
    17    20    21    1
    18    21    22    1
    19    22    23    1
    20    23    24    1
    21    24    25    1
    22    25    26    1
    23    26    27    1
    24    27    28    1
    25    28    29    1
    26    29    30    1
    27     8     9   ar
    28    13    14   ar
    29    14    15   ar
    30    15    10   ar
    31     9     1   ar
    32     9     4   ar
    33    28    23    1
    34    30    23    1
    35    27    24    1
    36    30    25    1
    37    29    26    1
@<TRIPOS>MOLECULE
*****
 30 37 0 0 0
SMALL
GASTEIGER

@<TRIPOS>ATOM
      1 C         139.4254  140.0728  167.9797 C.ar    1  UNL1        0.1725
      2 N         138.4515  139.5292  168.9827 N.ar    1  UNL1       -0.1283
      3 N         138.7769  140.1307  170.3177 N.ar    1  UNL1       -0.1267
      4 C         139.9519  141.0460  170.1398 C.ar    1  UNL1        0.1919
      5 C         140.7086  141.9073  171.1070 C.ar    1  UNL1        0.1382
      6 N         141.8662  142.7329  170.6291 N.ar    1  UNL1       -0.2342
      7 C         142.2670  142.6971  169.1841 C.ar    1  UNL1        0.1552
      8 C         141.5103  141.8357  168.2170 C.ar    1  UNL1        0.2320
      9 N         140.3527  141.0102  168.6948 N.ar    1  UNL1       -0.2417
     10 C         139.5447  139.0677  163.5949 C.ar    1  UNL1        0.1443
     11 C         138.3457  139.7587  164.1737 C.ar    1  UNL1        0.0372
     12 C         138.3060  140.0937  165.6353 C.ar    1  UNL1        0.0062
     13 C         139.4652  139.7378  166.5181 C.ar    1  UNL1        0.0365
     14 C         140.6642  139.0467  165.9393 C.ar    1  UNL1        0.0062
     15 C         140.7039  138.7117  164.4778 C.ar    1  UNL1        0.0372
     16 O         139.5844  138.7327  162.1334 O.3     1  UNL1       -0.4236
     17 F         137.2643  137.6192  161.7766 F       1  UNL1       -0.1550
     18 C         138.3069  138.6125  161.3565 C.3     1  UNL1        0.5087
     19 F         138.0721  139.4855  160.1595 F       1  UNL1       -0.1550
     20 O         141.9112  141.7999  166.7720 O.3     1  UNL1       -0.4600
     21 C         141.5097  142.9165  165.8544 C.3     1  UNL1        0.2071
     22 C         140.8496  142.6091  164.5430 C.3     1  UNL1        0.0474
     23 C         139.5613  143.2839  164.1754 C.3     1  UNL1        0.0036
     24 C         139.6492  142.7003  162.7964 C.3     1  UNL1        0.0001
     25 C         139.7369  142.1167  161.4174 C.3     1  UNL1        0.0000
     26 C         138.4487  142.7914  161.0498 C.3     1  UNL1        0.0000
     27 C         138.3609  143.3750  162.4288 C.3     1  UNL1        0.0000
     28 C         138.2731  143.9586  163.8078 C.3     1  UNL1        0.0001
     29 C         138.1853  144.5423  165.1868 C.3     1  UNL1        0.0000
     30 C         139.4735  143.8675  165.5544 C.3     1  UNL1        0.0001
@<TRIPOS>BOND
     1    17    18    1
     2    18    19    1
     3    18    16    1
     4    16    10    1
     5    10    11   ar
     6    11    12   ar
     7    12    13   ar
     8    13     1    1
     9     1     2   ar
    10     2     3   ar
    11     3     4   ar
    12     4     5   ar
    13     5     6   ar
    14     6     7   ar
    15     7     8   ar
    16     8    20    1
    17    20    21    1
    18    21    22    1
    19    22    23    1
    20    23    24    1
    21    24    25    1
    22    25    26    1
    23    26    27    1
    24    27    28    1
    25    28    29    1
    26    29    30    1
    27     8     9   ar
    28    13    14   ar
    29    14    15   ar
    30    15    10   ar
    31     9     1   ar
    32     9     4   ar
    33    28    23    1
    34    30    23    1
    35    27    24    1
    36    30    25    1
    37    29    26    1
@<TRIPOS>MOLECULE
*****
 30 37 0 0 0
SMALL
GASTEIGER

@<TRIPOS>ATOM
      1 C         142.7138  141.5735  167.8362 C.ar    1  UNL1        0.1725
      2 N         143.7302  142.5839  168.2787 N.ar    1  UNL1       -0.1283
      3 N         143.4884  142.8801  169.7291 N.ar    1  UNL1       -0.1267
      4 C         142.3225  142.0527  170.1831 C.ar    1  UNL1        0.1919
      5 C         141.6349  141.9303  171.5105 C.ar    1  UNL1        0.1382
      6 N         140.4686  141.0004  171.6681 N.ar    1  UNL1       -0.2342
      7 C         139.9899  140.1928  170.4982 C.ar    1  UNL1        0.1552
      8 C         140.6775  140.3152  169.1708 C.ar    1  UNL1        0.2320
      9 N         141.8437  141.2451  169.0132 N.ar    1  UNL1       -0.2417
     10 C         142.3401  139.8326  163.7034 C.ar    1  UNL1        0.1443
     11 C         142.8916  138.9986  164.8215 C.ar    1  UNL1        0.0372
     12 C         143.0162  139.5789  166.1991 C.ar    1  UNL1        0.0062
     13 C         142.5892  140.9931  166.4586 C.ar    1  UNL1        0.0365
     14 C         142.0376  141.8272  165.3405 C.ar    1  UNL1        0.0062
     15 C         141.9130  141.2469  163.9629 C.ar    1  UNL1        0.0372
     16 O         142.2155  139.2523  162.3258 O.3     1  UNL1       -0.4236
     17 F         143.7337  137.4320  161.2620 F       1  UNL1       -0.1550
     18 C         143.4468  138.8745  161.5569 C.3     1  UNL1        0.5087
     19 F         144.3911  139.9393  161.0830 F       1  UNL1       -0.1550
     20 O         140.1987  139.5076  168.0009 O.3     1  UNL1       -0.4600
     21 C         139.2460  140.1115  167.0122 C.3     1  UNL1        0.2071
     22 C         138.3711  139.2253  166.1760 C.3     1  UNL1        0.0474
     23 C         138.5868  139.1415  164.6939 C.3     1  UNL1        0.0036
     24 C         138.1755  140.5771  164.5529 C.3     1  UNL1        0.0001
     25 C         137.7643  142.0127  164.4118 C.3     1  UNL1        0.0000
     26 C         137.9799  141.9289  162.9298 C.3     1  UNL1        0.0000
     27 C         138.3912  140.4932  163.0709 C.3     1  UNL1        0.0000
     28 C         138.8024  139.0576  163.2119 C.3     1  UNL1        0.0001
     29 C         139.2136  137.6221  163.3529 C.3     1  UNL1        0.0000
     30 C         138.9980  137.7059  164.8349 C.3     1  UNL1        0.0001
@<TRIPOS>BOND
     1    17    18    1
     2    18    19    1
     3    18    16    1
     4    16    10    1
     5    10    11   ar
     6    11    12   ar
     7    12    13   ar
     8    13     1    1
     9     1     2   ar
    10     2     3   ar
    11     3     4   ar
    12     4     5   ar
    13     5     6   ar
    14     6     7   ar
    15     7     8   ar
    16     8    20    1
    17    20    21    1
    18    21    22    1
    19    22    23    1
    20    23    24    1
    21    24    25    1
    22    25    26    1
    23    26    27    1
    24    27    28    1
    25    28    29    1
    26    29    30    1
    27     8     9   ar
    28    13    14   ar
    29    14    15   ar
    30    15    10   ar
    31     9     1   ar
    32     9     4   ar
    33    28    23    1
    34    30    23    1
    35    27    24    1
    36    30    25    1
    37    29    26    1
@<TRIPOS>MOLECULE
*****
 30 37 0 0 0
SMALL
GASTEIGER

@<TRIPOS>ATOM
      1 C         144.0165  141.4795  164.4937 C.ar    1  UNL1        0.1725
      2 N         145.3144  140.9369  163.9731 N.ar    1  UNL1       -0.1283
      3 N         145.5121  141.4629  162.5823 N.ar    1  UNL1       -0.1267
      4 C         144.3364  142.3307  162.2435 C.ar    1  UNL1        0.1919
      5 C         143.9881  143.1129  161.0119 C.ar    1  UNL1        0.1382
      6 N         142.7155  143.9053  160.9616 N.ar    1  UNL1       -0.2342
      7 C         141.7912  143.9155  162.1429 C.ar    1  UNL1        0.1552
      8 C         142.1395  143.1333  163.3745 C.ar    1  UNL1        0.2320
      9 N         143.4121  142.3409  163.4248 N.ar    1  UNL1       -0.2417
     10 C         142.2467  140.6658  168.5503 C.ar    1  UNL1        0.1443
     11 C         142.6972  142.0512  168.1927 C.ar    1  UNL1        0.0372
     12 C         143.2871  142.3224  166.8405 C.ar    1  UNL1        0.0062
     13 C         143.4266  141.2083  165.8459 C.ar    1  UNL1        0.0365
     14 C         142.9761  139.8229  166.2035 C.ar    1  UNL1        0.0062
     15 C         142.3862  139.5517  167.5557 C.ar    1  UNL1        0.0372
     16 O         141.6568  140.3947  169.9025 O.3     1  UNL1       -0.4236
     17 F         139.2471  140.6612  168.9686 F       1  UNL1       -0.1550
     18 C         140.1774  140.1952  170.0491 C.3     1  UNL1        0.5087
     19 F         139.6282  139.5297  171.2761 F       1  UNL1       -0.1550
     20 O         141.2152  143.1436  164.5558 O.3     1  UNL1       -0.4600
     21 C         140.0095  142.2514  164.5725 C.3     1  UNL1        0.2071
     22 C         140.0686  140.8984  163.9275 C.3     1  UNL1        0.0474
     23 C         139.5999  139.6880  164.6793 C.3     1  UNL1        0.0036
     24 C         140.6187  138.8500  163.9653 C.3     1  UNL1        0.0001
     25 C         141.6375  138.0120  163.2512 C.3     1  UNL1        0.0000
     26 C         141.1688  136.8016  164.0030 C.3     1  UNL1        0.0000
     27 C         140.1499  137.6396  164.7170 C.3     1  UNL1        0.0000
     28 C         139.1312  138.4776  165.4310 C.3     1  UNL1        0.0001
     29 C         138.1124  139.3155  166.1450 C.3     1  UNL1        0.0000
     30 C         138.5811  140.5259  165.3933 C.3     1  UNL1        0.0001
@<TRIPOS>BOND
     1    17    18    1
     2    18    19    1
     3    18    16    1
     4    16    10    1
     5    10    11   ar
     6    11    12   ar
     7    12    13   ar
     8    13     1    1
     9     1     2   ar
    10     2     3   ar
    11     3     4   ar
    12     4     5   ar
    13     5     6   ar
    14     6     7   ar
    15     7     8   ar
    16     8    20    1
    17    20    21    1
    18    21    22    1
    19    22    23    1
    20    23    24    1
    21    24    25    1
    22    25    26    1
    23    26    27    1
    24    27    28    1
    25    28    29    1
    26    29    30    1
    27     8     9   ar
    28    13    14   ar
    29    14    15   ar
    30    15    10   ar
    31     9     1   ar
    32     9     4   ar
    33    28    23    1
    34    30    23    1
    35    27    24    1
    36    30    25    1
    37    29    26    1
@<TRIPOS>MOLECULE
*****
 30 37 0 0 0
SMALL
GASTEIGER

@<TRIPOS>ATOM
      1 C         139.3907  143.3132  163.9905 C.ar    1  UNL1        0.1725
      2 N         138.1507  144.0582  163.5939 N.ar    1  UNL1       -0.1283
      3 N         138.4500  144.8204  162.3372 N.ar    1  UNL1       -0.1267
      4 C         139.8750  144.5465  161.9571 C.ar    1  UNL1        0.1919
      5 C         140.7183  145.0250  160.8127 C.ar    1  UNL1        0.1382
      6 N         142.1429  144.5720  160.6901 N.ar    1  UNL1       -0.2342
      7 C         142.7243  143.6404  161.7119 C.ar    1  UNL1        0.1552
      8 C         141.8810  143.1619  162.8564 C.ar    1  UNL1        0.2320
      9 N         140.4564  143.6150  162.9790 N.ar    1  UNL1       -0.2417
     10 C         139.8356  140.6416  167.5843 C.ar    1  UNL1        0.1443
     11 C         140.4456  142.0119  167.5883 C.ar    1  UNL1        0.0372
     12 C         140.2973  142.9024  166.3904 C.ar    1  UNL1        0.0062
     13 C         139.5390  142.4227  165.1885 C.ar    1  UNL1        0.0365
     14 C         138.9289  141.0523  165.1845 C.ar    1  UNL1        0.0062
     15 C         139.0772  140.1618  166.3824 C.ar    1  UNL1        0.0372
     16 O         139.9839  139.7510  168.7822 O.3     1  UNL1       -0.4236
     17 F         137.9735  140.4328  170.2800 F       1  UNL1       -0.1550
     18 C         139.4436  140.1866  170.1120 C.3     1  UNL1        0.5087
     19 F         140.3734  140.3759  171.2737 F       1  UNL1       -0.1550
     20 O         142.4624  142.2304  163.8783 O.3     1  UNL1       -0.4600
     21 C         142.5587  140.7623  163.5861 C.3     1  UNL1        0.2071
     22 C         141.5376  140.1041  162.7062 C.3     1  UNL1        0.0474
     23 C         140.8333  138.8645  163.1723 C.3     1  UNL1        0.0036
     24 C         139.6930  139.1637  162.2449 C.3     1  UNL1        0.0001
     25 C         138.5527  139.4628  161.3174 C.3     1  UNL1        0.0000
     26 C         137.8483  138.2233  161.7835 C.3     1  UNL1        0.0000
     27 C         138.9887  137.9241  162.7110 C.3     1  UNL1        0.0000
     28 C         140.1289  137.6249  163.6384 C.3     1  UNL1        0.0001
     29 C         141.2692  137.3257  164.5659 C.3     1  UNL1        0.0000
     30 C         141.9735  138.5653  164.0998 C.3     1  UNL1        0.0001
@<TRIPOS>BOND
     1    17    18    1
     2    18    19    1
     3    18    16    1
     4    16    10    1
     5    10    11   ar
     6    11    12   ar
     7    12    13   ar
     8    13     1    1
     9     1     2   ar
    10     2     3   ar
    11     3     4   ar
    12     4     5   ar
    13     5     6   ar
    14     6     7   ar
    15     7     8   ar
    16     8    20    1
    17    20    21    1
    18    21    22    1
    19    22    23    1
    20    23    24    1
    21    24    25    1
    22    25    26    1
    23    26    27    1
    24    27    28    1
    25    28    29    1
    26    29    30    1
    27     8     9   ar
    28    13    14   ar
    29    14    15   ar
    30    15    10   ar
    31     9     1   ar
    32     9     4   ar
    33    28    23    1
    34    30    23    1
    35    27    24    1
    36    30    25    1
    37    29    26    1
@<TRIPOS>MOLECULE
*****
 30 37 0 0 0
SMALL
GASTEIGER

@<TRIPOS>ATOM
      1 C         141.9517  143.0414  163.8381 C.ar    1  UNL1        0.1725
      2 N         143.3143  143.1296  163.2172 N.ar    1  UNL1       -0.1283
      3 N         143.2245  144.0425  162.0303 N.ar    1  UNL1       -0.1267
      4 C         141.8064  144.5185  161.9178 C.ar    1  UNL1        0.1919
      5 C         141.1299  145.4353  160.9423 C.ar    1  UNL1        0.1382
      6 N         139.6667  145.7334  161.0842 N.ar    1  UNL1       -0.2342
      7 C         138.8801  145.1146  162.2015 C.ar    1  UNL1        0.1552
      8 C         139.5566  144.1978  163.1769 C.ar    1  UNL1        0.2320
      9 N         141.0198  143.8997  163.0351 N.ar    1  UNL1       -0.2417
     10 C         140.8526  140.6256  167.4722 C.ar    1  UNL1        0.1443
     11 C         140.5759  142.0995  167.4395 C.ar    1  UNL1        0.0372
     12 C         140.9423  142.9047  166.2282 C.ar    1  UNL1        0.0062
     13 C         141.5854  142.2361  165.0495 C.ar    1  UNL1        0.0365
     14 C         141.8621  140.7621  165.0821 C.ar    1  UNL1        0.0062
     15 C         141.4957  139.9569  166.2935 C.ar    1  UNL1        0.0372
     16 O         140.4862  139.8203  168.6835 O.3     1  UNL1       -0.4236
     17 F         140.1899  141.4211  170.7083 F       1  UNL1       -0.1550
     18 C         139.6171  140.4207  169.7485 C.3     1  UNL1        0.5087
     19 F         138.1752  140.0207  169.8536 F       1  UNL1       -0.1550
     20 O         138.7700  143.5790  164.2942 O.3     1  UNL1       -0.4600
     21 C         137.8412  142.4351  164.0137 C.3     1  UNL1        0.2071
     22 C         137.8728  141.2128  164.8826 C.3     1  UNL1        0.0474
     23 C         138.4006  139.9187  164.3378 C.3     1  UNL1        0.0036
     24 C         138.0560  139.2351  165.6277 C.3     1  UNL1        0.0001
     25 C         137.7114  138.5515  166.9177 C.3     1  UNL1        0.0000
     26 C         138.2391  137.2574  166.3729 C.3     1  UNL1        0.0000
     27 C         138.5837  137.9411  165.0829 C.3     1  UNL1        0.0000
     28 C         138.9283  138.6246  163.7930 C.3     1  UNL1        0.0001
     29 C         139.2729  139.3082  162.5031 C.3     1  UNL1        0.0000
     30 C         138.7452  140.6023  163.0479 C.3     1  UNL1        0.0001
@<TRIPOS>BOND
     1    17    18    1
     2    18    19    1
     3    18    16    1
     4    16    10    1
     5    10    11   ar
     6    11    12   ar
     7    12    13   ar
     8    13     1    1
     9     1     2   ar
    10     2     3   ar
    11     3     4   ar
    12     4     5   ar
    13     5     6   ar
    14     6     7   ar
    15     7     8   ar
    16     8    20    1
    17    20    21    1
    18    21    22    1
    19    22    23    1
    20    23    24    1
    21    24    25    1
    22    25    26    1
    23    26    27    1
    24    27    28    1
    25    28    29    1
    26    29    30    1
    27     8     9   ar
    28    13    14   ar
    29    14    15   ar
    30    15    10   ar
    31     9     1   ar
    32     9     4   ar
    33    28    23    1
    34    30    23    1
    35    27    24    1
    36    30    25    1
    37    29    26    1
@<TRIPOS>MOLECULE
*****
 30 37 0 0 0
SMALL
GASTEIGER

@<TRIPOS>ATOM
      1 C         138.4914  141.4958  163.5360 C.ar    1  UNL1        0.1725
      2 N         137.9009  142.8300  163.1876 N.ar    1  UNL1       -0.1283
      3 N         137.7023  142.8750  161.7015 N.ar    1  UNL1       -0.1267
      4 C         138.1701  141.5687  161.1314 C.ar    1  UNL1        0.1919
      5 C         138.2149  141.0453  159.7265 C.ar    1  UNL1        0.1382
      6 N         138.7474  139.6695  159.4553 N.ar    1  UNL1       -0.2342
      7 C         139.2351  138.8171  160.5892 C.ar    1  UNL1        0.1552
      8 C         139.1902  139.3405  161.9942 C.ar    1  UNL1        0.2320
      9 N         138.6577  140.7163  162.2653 N.ar    1  UNL1       -0.2417
     10 C         139.5737  140.0802  167.6682 C.ar    1  UNL1        0.1443
     11 C         140.1507  141.3594  167.1385 C.ar    1  UNL1        0.0372
     12 C         139.7899  141.8313  165.7611 C.ar    1  UNL1        0.0062
     13 C         138.8522  141.0240  164.9134 C.ar    1  UNL1        0.0365
     14 C         138.2751  139.7446  165.4431 C.ar    1  UNL1        0.0062
     15 C         138.6359  139.2728  166.8205 C.ar    1  UNL1        0.0372
     16 O         139.9345  139.6083  169.0456 O.3     1  UNL1       -0.4236
     17 F         138.2834  141.1902  170.2790 F       1  UNL1       -0.1550
     18 C         139.5845  140.4447  170.2406 C.3     1  UNL1        0.5087
     19 F         140.5355  140.5355  171.3970 F       1  UNL1       -0.1550
     20 O         139.6779  138.4881  163.1280 O.3     1  UNL1       -0.4600
     21 C         141.1481  138.2553  163.3128 C.3     1  UNL1        0.2071
     22 C         142.0836  139.4221  163.4279 C.3     1  UNL1        0.0474
     23 C         142.6575  139.7945  164.7629 C.3     1  UNL1        0.0036
     24 C         142.9582  141.1714  164.2496 C.3     1  UNL1        0.0001
     25 C         143.2589  142.5484  163.7362 C.3     1  UNL1        0.0000
     26 C         143.8328  142.9208  165.0711 C.3     1  UNL1        0.0000
     27 C         143.5320  141.5438  165.5845 C.3     1  UNL1        0.0000
     28 C         143.2313  140.1669  166.0978 C.3     1  UNL1        0.0001
     29 C         142.9306  138.7899  166.6112 C.3     1  UNL1        0.0000
     30 C         142.3568  138.4176  165.2763 C.3     1  UNL1        0.0001
@<TRIPOS>BOND
     1    17    18    1
     2    18    19    1
     3    18    16    1
     4    16    10    1
     5    10    11   ar
     6    11    12   ar
     7    12    13   ar
     8    13     1    1
     9     1     2   ar
    10     2     3   ar
    11     3     4   ar
    12     4     5   ar
    13     5     6   ar
    14     6     7   ar
    15     7     8   ar
    16     8    20    1
    17    20    21    1
    18    21    22    1
    19    22    23    1
    20    23    24    1
    21    24    25    1
    22    25    26    1
    23    26    27    1
    24    27    28    1
    25    28    29    1
    26    29    30    1
    27     8     9   ar
    28    13    14   ar
    29    14    15   ar
    30    15    10   ar
    31     9     1   ar
    32     9     4   ar
    33    28    23    1
    34    30    23    1
    35    27    24    1
    36    30    25    1
    37    29    26    1
