@<TRIPOS>MOLECULE
*****
 35 38 0 0 0
SMALL
GASTEIGER

@<TRIPOS>ATOM
      1 C         143.8341  142.5205  164.0024 C.ar    1  UNL1        0.2266
      2 C         143.4883  143.0221  165.3730 C.ar    1  UNL1        0.0617
      3 C         142.7151  142.1505  166.3177 C.ar    1  UNL1        0.0805
      4 C         142.2876  140.7773  165.8917 C.ar    1  UNL1        0.0590
      5 C         141.5215  139.6997  166.6002 C.ar    1  UNL1        0.1038
      6 N         141.3937  138.5320  165.6673 N.ar    1  UNL1       -0.1679
      7 N         142.0810  138.8880  164.3823 N.ar    1  UNL1       -0.2319
      8 C         142.1956  138.0104  163.1713 C.3     1  UNL1        0.1554
      9 C         142.6334  140.2756  164.5211 C.ar    1  UNL1        0.1639
     10 N         143.4066  141.1472  163.5764 N.ar    1  UNL1       -0.1928
     11 C         140.9784  139.7763  167.9963 C.ar    1  UNL1        0.0194
     12 C         139.5425  140.1461  168.2233 C.ar    1  UNL1        0.0016
     13 C         138.9995  140.2227  169.6194 C.ar    1  UNL1        0.0000
     14 C         139.8924  139.9296  170.7885 C.ar    1  UNL1        0.0000
     15 C         141.3282  139.5598  170.5616 C.ar    1  UNL1        0.0000
     16 C         141.8712  139.4832  169.1654 C.ar    1  UNL1        0.0016
     17 C         142.3693  142.6522  167.6884 C.3     1  UNL1        0.4189
     18 F         142.0235  143.1538  169.0591 F       1  UNL1       -0.1659
     19 F         143.7609  142.3408  168.1534 F       1  UNL1       -0.1659
     20 F         140.9776  142.9636  167.2234 F       1  UNL1       -0.1659
     21 O         144.6073  143.3920  163.0576 O.3     1  UNL1       -0.4501
     22 C         144.0255  144.6935  162.5913 C.3     1  UNL1        0.2910
     23 N         141.5208  145.2321  163.0232 N.am    1  UNL1       -0.3022
     24 C         142.6067  144.7503  162.1075 C.2     1  UNL1        0.2671
     25 O         142.2740  144.3254  160.7080 O.2     1  UNL1       -0.2711
     26 H         141.7392  145.5111  163.9418 H       1  UNL1        0.1495
     27 C         140.1021  145.2889  162.5394 C.3     1  UNL1        0.0823
     28 C         139.6514  146.4245  161.6692 C.3     1  UNL1        0.0220
     29 C         139.0245  142.8945  160.6016 C.3     1  UNL1        0.0496
     30 C         138.6389  143.1095  162.0351 C.2     1  UNL1        0.0652
     31 N         137.6902  142.2617  162.8296 N.2     1  UNL1       -0.1569
     32 N         137.5991  142.8383  164.2114 N.2     1  UNL1       -0.1569
     33 C         138.4916  144.0425  164.2708 C.2     1  UNL1        0.0652
     34 C         138.7042  144.9243  165.4656 C.3     1  UNL1        0.0496
     35 C         139.1342  144.2101  162.9258 C.3     1  UNL1        0.0935
@<TRIPOS>BOND
     1    29    30    1
     2    30    31    2
     3    31    32    1
     4    32    33    2
     5    33    34    1
     6    33    35    1
     7    35    27    1
     8    27    28    1
     9    27    23    1
    10    23    24   am
    11    24    25    2
    12    24    22    1
    13    22    21    1
    14    21     1    1
    15     1     2   ar
    16     2     3   ar
    17     3    17    1
    18    17    18    1
    19    17    19    1
    20    17    20    1
    21     3     4   ar
    22     4     5   ar
    23     5    11    1
    24    11    12   ar
    25    12    13   ar
    26    13    14   ar
    27    14    15   ar
    28    15    16   ar
    29     5     6   ar
    30     6     7   ar
    31     7     8    1
    32     7     9   ar
    33     9    10   ar
    34    35    30    1
    35    10     1   ar
    36     9     4   ar
    37    16    11   ar
    38    23    26    1
@<TRIPOS>MOLECULE
*****
 35 38 0 0 0
SMALL
GASTEIGER

@<TRIPOS>ATOM
      1 C         138.3135  140.6047  163.5166 C.ar    1  UNL1        0.2266
      2 C         139.3787  141.6032  163.8603 C.ar    1  UNL1        0.0617
      3 C         139.9399  141.6526  165.2505 C.ar    1  UNL1        0.0805
      4 C         139.4358  140.7034  166.2969 C.ar    1  UNL1        0.0590
      5 C         139.7964  140.5180  167.7411 C.ar    1  UNL1        0.1038
      6 N         138.9539  139.4048  168.2899 N.ar    1  UNL1       -0.1679
      7 N         138.0727  138.9024  167.1849 N.ar    1  UNL1       -0.2319
      8 C         137.0698  137.7922  167.2927 C.3     1  UNL1        0.1554
      9 C         138.3705  139.7049  165.9532 C.ar    1  UNL1        0.1639
     10 N         137.8094  139.6556  164.5630 N.ar    1  UNL1       -0.1928
     11 C         140.8197  141.3071  168.5027 C.ar    1  UNL1        0.0194
     12 C         140.4235  142.5762  169.1974 C.ar    1  UNL1        0.0016
     13 C         141.4468  143.3652  169.9589 C.ar    1  UNL1        0.0000
     14 C         142.8664  142.8853  170.0259 C.ar    1  UNL1        0.0000
     15 C         143.2626  141.6162  169.3313 C.ar    1  UNL1        0.0000
     16 C         142.2393  140.8272  168.5697 C.ar    1  UNL1        0.0016
     17 C         141.0052  142.6511  165.5942 C.3     1  UNL1        0.4189
     18 F         142.0704  143.6496  165.9380 F       1  UNL1       -0.1659
     19 F         139.9495  143.6455  165.9772 F       1  UNL1       -0.1659
     20 F         142.0609  141.6567  165.2113 F       1  UNL1       -0.1659
     21 O         137.7522  140.5553  162.1263 O.3     1  UNL1       -0.4501
     22 C         138.5319  139.8992  161.0257 C.3     1  UNL1        0.2910
     23 N         141.0724  139.6549  161.5123 N.am    1  UNL1       -0.3022
     24 C         139.7146  139.0372  161.3551 C.2     1  UNL1        0.2671
     25 O         139.5393  137.5574  161.5274 O.2     1  UNL1       -0.2711
     26 H         141.1874  140.6261  161.3992 H       1  UNL1        0.1495
     27 C         142.2549  138.7929  161.8417 C.3     1  UNL1        0.0823
     28 C         142.8470  137.8992  160.7926 C.3     1  UNL1        0.0220
     29 C         141.1314  137.1809  164.4473 C.3     1  UNL1        0.0496
     30 C         142.3289  138.0837  164.4179 C.2     1  UNL1        0.0652
     31 N         143.2203  138.4040  165.5810 N.2     1  UNL1       -0.1569
     32 N         144.2877  139.3430  165.1022 N.2     1  UNL1       -0.1569
     33 C         144.0559  139.6029  163.6432 C.2     1  UNL1        0.0652
     34 C         144.8885  140.4861  162.7618 C.3     1  UNL1        0.0496
     35 C         142.8453  138.8247  163.2203 C.3     1  UNL1        0.0935
@<TRIPOS>BOND
     1    29    30    1
     2    30    31    2
     3    31    32    1
     4    32    33    2
     5    33    34    1
     6    33    35    1
     7    35    27    1
     8    27    28    1
     9    27    23    1
    10    23    24   am
    11    24    25    2
    12    24    22    1
    13    22    21    1
    14    21     1    1
    15     1     2   ar
    16     2     3   ar
    17     3    17    1
    18    17    18    1
    19    17    19    1
    20    17    20    1
    21     3     4   ar
    22     4     5   ar
    23     5    11    1
    24    11    12   ar
    25    12    13   ar
    26    13    14   ar
    27    14    15   ar
    28    15    16   ar
    29     5     6   ar
    30     6     7   ar
    31     7     8    1
    32     7     9   ar
    33     9    10   ar
    34    35    30    1
    35    10     1   ar
    36     9     4   ar
    37    16    11   ar
    38    23    26    1
@<TRIPOS>MOLECULE
*****
 35 38 0 0 0
SMALL
GASTEIGER

@<TRIPOS>ATOM
      1 C         139.2281  139.7003  163.4761 C.ar    1  UNL1        0.2266
      2 C         140.3266  140.6608  163.8233 C.ar    1  UNL1        0.0617
      3 C         140.6386  140.9554  165.2606 C.ar    1  UNL1        0.0805
      4 C         139.8522  140.2895  166.3506 C.ar    1  UNL1        0.0590
      5 C         139.9313  140.3824  167.8457 C.ar    1  UNL1        0.1038
      6 N         138.8816  139.4793  168.4223 N.ar    1  UNL1       -0.1679
      7 N         138.1539  138.8283  167.2837 N.ar    1  UNL1       -0.2319
      8 C         137.0245  137.8485  167.4043 C.3     1  UNL1        0.1554
      9 C         138.7537  139.3290  166.0033 C.ar    1  UNL1        0.1639
     10 N         138.4417  139.0344  164.5660 N.ar    1  UNL1       -0.1928
     11 C         140.8914  141.2297  168.6268 C.ar    1  UNL1        0.0194
     12 C         142.2635  140.7120  168.9422 C.ar    1  UNL1        0.0016
     13 C         143.2235  141.5593  169.7234 C.ar    1  UNL1        0.0000
     14 C         142.8116  142.9244  170.1892 C.ar    1  UNL1        0.0000
     15 C         141.4396  143.4421  169.8738 C.ar    1  UNL1        0.0000
     16 C         140.4795  142.5948  169.0926 C.ar    1  UNL1        0.0016
     17 C         141.7372  141.9160  165.6079 C.3     1  UNL1        0.4189
     18 F         142.8356  142.8765  165.9553 F       1  UNL1       -0.1659
     19 F         140.7541  143.0486  165.5849 F       1  UNL1       -0.1659
     20 F         142.7203  140.7834  165.6310 F       1  UNL1       -0.1659
     21 O         138.9159  139.4057  162.0387 O.3     1  UNL1       -0.4501
     22 C         138.1531  140.4023  161.2174 C.3     1  UNL1        0.2910
     23 N         140.0906  142.0615  160.7242 N.am    1  UNL1       -0.3022
     24 C         138.6571  141.8091  161.0865 C.2     1  UNL1        0.2671
     25 O         137.7276  142.9634  161.3178 O.2     1  UNL1       -0.2711
     26 H         140.7007  141.3039  160.5723 H       1  UNL1        0.1495
     27 C         140.5946  143.4682  160.5933 C.3     1  UNL1        0.0823
     28 C         140.2783  144.2668  159.3637 C.3     1  UNL1        0.0220
     29 C         139.4763  145.3842  162.9867 C.3     1  UNL1        0.0496
     30 C         140.9009  144.9569  162.7922 C.2     1  UNL1        0.0652
     31 N         142.0616  145.3354  163.6637 N.2     1  UNL1       -0.1569
     32 N         143.2931  144.6886  163.1022 N.2     1  UNL1       -0.1569
     33 C         142.8934  143.9104  161.8837 C.2     1  UNL1        0.0652
     34 C         143.8111  143.1073  161.0102 C.3     1  UNL1        0.0496
     35 C         141.4150  144.0763  161.6921 C.3     1  UNL1        0.0935
@<TRIPOS>BOND
     1    29    30    1
     2    30    31    2
     3    31    32    1
     4    32    33    2
     5    33    34    1
     6    33    35    1
     7    35    27    1
     8    27    28    1
     9    27    23    1
    10    23    24   am
    11    24    25    2
    12    24    22    1
    13    22    21    1
    14    21     1    1
    15     1     2   ar
    16     2     3   ar
    17     3    17    1
    18    17    18    1
    19    17    19    1
    20    17    20    1
    21     3     4   ar
    22     4     5   ar
    23     5    11    1
    24    11    12   ar
    25    12    13   ar
    26    13    14   ar
    27    14    15   ar
    28    15    16   ar
    29     5     6   ar
    30     6     7   ar
    31     7     8    1
    32     7     9   ar
    33     9    10   ar
    34    35    30    1
    35    10     1   ar
    36     9     4   ar
    37    16    11   ar
    38    23    26    1
@<TRIPOS>MOLECULE
*****
 35 38 0 0 0
SMALL
GASTEIGER

@<TRIPOS>ATOM
      1 C         139.0809  139.7923  163.5505 C.ar    1  UNL1        0.2266
      2 C         140.1527  140.7832  163.8956 C.ar    1  UNL1        0.0617
      3 C         140.4756  141.0689  165.3323 C.ar    1  UNL1        0.0805
      4 C         139.7267  140.3636  166.4239 C.ar    1  UNL1        0.0590
      5 C         139.8240  140.4394  167.9189 C.ar    1  UNL1        0.1038
      6 N         138.8123  139.4953  168.4977 N.ar    1  UNL1       -0.1679
      7 N         138.0897  138.8360  167.3605 N.ar    1  UNL1       -0.2319
      8 C         136.9943  137.8186  167.4833 C.3     1  UNL1        0.1554
      9 C         138.6548  139.3726  166.0788 C.ar    1  UNL1        0.1639
     10 N         138.3319  139.0870  164.6422 N.ar    1  UNL1       -0.1928
     11 C         140.7674  141.3070  168.6981 C.ar    1  UNL1        0.0194
     12 C         140.3246  142.6595  169.1721 C.ar    1  UNL1        0.0016
     13 C         141.2680  143.5270  169.9514 C.ar    1  UNL1        0.0000
     14 C         142.6543  143.0421  170.2566 C.ar    1  UNL1        0.0000
     15 C         143.0971  141.6896  169.7826 C.ar    1  UNL1        0.0000
     16 C         142.1537  140.8221  169.0034 C.ar    1  UNL1        0.0016
     17 C         141.5475  142.0599  165.6774 C.3     1  UNL1        0.4189
     18 F         142.6194  143.0508  166.0226 F       1  UNL1       -0.1659
     19 F         142.5650  140.9577  165.6818 F       1  UNL1       -0.1659
     20 F         140.5301  143.1620  165.6731 F       1  UNL1       -0.1659
     21 O         138.7579  139.5066  162.1138 O.3     1  UNL1       -0.4501
     22 C         139.4762  138.4081  161.3877 C.3     1  UNL1        0.2910
     23 N         141.9662  138.5452  162.1168 N.am    1  UNL1       -0.3022
     24 C         140.9261  138.5644  161.0361 C.2     1  UNL1        0.2671
     25 O         141.3358  138.7400  159.6039 O.2     1  UNL1       -0.2711
     26 H         141.6973  138.4300  163.0568 H       1  UNL1        0.1495
     27 C         143.4159  138.7015  161.7652 C.3     1  UNL1        0.0823
     28 C         144.1510  137.5777  161.0968 C.3     1  UNL1        0.0220
     29 C         145.0713  139.3477  164.5023 C.3     1  UNL1        0.0496
     30 C         144.8916  140.2787  163.3401 C.2     1  UNL1        0.0652
     31 N         145.4413  141.6701  163.2319 N.2     1  UNL1       -0.1569
     32 N         145.0201  142.2332  161.9068 N.2     1  UNL1       -0.1569
     33 C         144.2101  141.1897  161.1962 C.2     1  UNL1        0.0652
     34 C         143.5886  141.3295  159.8381 C.3     1  UNL1        0.0496
     35 C         144.1308  139.9817  162.0819 C.3     1  UNL1        0.0935
@<TRIPOS>BOND
     1    29    30    1
     2    30    31    2
     3    31    32    1
     4    32    33    2
     5    33    34    1
     6    33    35    1
     7    35    27    1
     8    27    28    1
     9    27    23    1
    10    23    24   am
    11    24    25    2
    12    24    22    1
    13    22    21    1
    14    21     1    1
    15     1     2   ar
    16     2     3   ar
    17     3    17    1
    18    17    18    1
    19    17    19    1
    20    17    20    1
    21     3     4   ar
    22     4     5   ar
    23     5    11    1
    24    11    12   ar
    25    12    13   ar
    26    13    14   ar
    27    14    15   ar
    28    15    16   ar
    29     5     6   ar
    30     6     7   ar
    31     7     8    1
    32     7     9   ar
    33     9    10   ar
    34    35    30    1
    35    10     1   ar
    36     9     4   ar
    37    16    11   ar
    38    23    26    1
@<TRIPOS>MOLECULE
*****
 35 38 0 0 0
SMALL
GASTEIGER

@<TRIPOS>ATOM
      1 C         143.3973  141.4831  163.3004 C.ar    1  UNL1        0.2266
      2 C         143.5823  140.8517  164.6484 C.ar    1  UNL1        0.0617
      3 C         142.6447  141.1890  165.7696 C.ar    1  UNL1        0.0805
      4 C         141.5222  142.1577  165.5428 C.ar    1  UNL1        0.0590
      5 C         140.4481  142.6798  166.4506 C.ar    1  UNL1        0.1038
      6 N         139.5994  143.6338  165.6636 N.ar    1  UNL1       -0.1679
      7 N         140.1489  143.7014  164.2694 N.ar    1  UNL1       -0.2319
      8 C         139.6054  144.5349  163.1470 C.3     1  UNL1        0.1554
      9 C         141.3372  142.7891  164.1948 C.ar    1  UNL1        0.1639
     10 N         142.2748  142.4518  163.0736 N.ar    1  UNL1       -0.1928
     11 C         140.2565  142.3123  167.8922 C.ar    1  UNL1        0.0194
     12 C         140.5242  143.3246  168.9662 C.ar    1  UNL1        0.0016
     13 C         140.3326  142.9570  170.4077 C.ar    1  UNL1        0.0000
     14 C         139.8733  141.5772  170.7753 C.ar    1  UNL1        0.0000
     15 C         139.6057  140.5648  169.7013 C.ar    1  UNL1        0.0000
     16 C         139.7973  140.9324  168.2597 C.ar    1  UNL1        0.0016
     17 C         142.8297  140.5576  167.1176 C.3     1  UNL1        0.4189
     18 F         143.0146  139.9262  168.4656 F       1  UNL1       -0.1659
     19 F         142.2135  139.2886  166.6077 F       1  UNL1       -0.1659
     20 F         143.4459  141.8266  167.6275 F       1  UNL1       -0.1659
     21 O         144.3349  141.1458  162.1791 O.3     1  UNL1       -0.4501
     22 C         143.9767  140.0665  161.2010 C.3     1  UNL1        0.2910
     23 N         141.4269  139.8834  161.6647 N.am    1  UNL1       -0.3022
     24 C         142.7541  139.2268  161.4250 C.2     1  UNL1        0.2671
     25 O         142.8587  137.7305  161.4094 O.2     1  UNL1       -0.2711
     26 H         141.3583  140.8654  161.6750 H       1  UNL1        0.1495
     27 C         140.2044  139.0437  161.8887 C.3     1  UNL1        0.0823
     28 C         139.6062  138.2712  160.7506 C.3     1  UNL1        0.0220
     29 C         137.7219  140.8749  162.9535 C.3     1  UNL1        0.0496
     30 C         138.4389  139.8182  163.7403 C.2     1  UNL1        0.0652
     31 N         138.1407  139.4176  165.1548 N.2     1  UNL1       -0.1569
     32 N         139.0975  138.3283  165.5396 N.2     1  UNL1       -0.1569
     33 C         139.9870  138.0557  164.3630 C.2     1  UNL1        0.0652
     34 C         141.0900  137.0405  164.3079 C.3     1  UNL1        0.0496
     35 C         139.5799  138.9765  163.2510 C.3     1  UNL1        0.0935
@<TRIPOS>BOND
     1    29    30    1
     2    30    31    2
     3    31    32    1
     4    32    33    2
     5    33    34    1
     6    33    35    1
     7    35    27    1
     8    27    28    1
     9    27    23    1
    10    23    24   am
    11    24    25    2
    12    24    22    1
    13    22    21    1
    14    21     1    1
    15     1     2   ar
    16     2     3   ar
    17     3    17    1
    18    17    18    1
    19    17    19    1
    20    17    20    1
    21     3     4   ar
    22     4     5   ar
    23     5    11    1
    24    11    12   ar
    25    12    13   ar
    26    13    14   ar
    27    14    15   ar
    28    15    16   ar
    29     5     6   ar
    30     6     7   ar
    31     7     8    1
    32     7     9   ar
    33     9    10   ar
    34    35    30    1
    35    10     1   ar
    36     9     4   ar
    37    16    11   ar
    38    23    26    1
@<TRIPOS>MOLECULE
*****
 35 38 0 0 0
SMALL
GASTEIGER

@<TRIPOS>ATOM
      1 C         143.3815  141.4863  163.2883 C.ar    1  UNL1        0.2266
      2 C         143.5649  140.8489  164.6337 C.ar    1  UNL1        0.0617
      3 C         142.6297  141.1858  165.7569 C.ar    1  UNL1        0.0805
      4 C         141.5109  142.1601  165.5348 C.ar    1  UNL1        0.0590
      5 C         140.4398  142.6830  166.4454 C.ar    1  UNL1        0.1038
      6 N         139.5943  143.6436  165.6628 N.ar    1  UNL1       -0.1679
      7 N         140.1430  143.7143  164.2685 N.ar    1  UNL1       -0.2319
      8 C         139.6021  144.5543  163.1497 C.3     1  UNL1        0.1554
      9 C         141.3275  142.7974  164.1894 C.ar    1  UNL1        0.1639
     10 N         142.2627  142.4605  163.0662 N.ar    1  UNL1       -0.1928
     11 C         140.2478  142.3108  167.8858 C.ar    1  UNL1        0.0194
     12 C         140.5393  143.3117  168.9644 C.ar    1  UNL1        0.0016
     13 C         140.3473  142.9393  170.4046 C.ar    1  UNL1        0.0000
     14 C         139.8639  141.5662  170.7664 C.ar    1  UNL1        0.0000
     15 C         139.5724  140.5654  169.6878 C.ar    1  UNL1        0.0000
     16 C         139.7644  140.9377  168.2475 C.ar    1  UNL1        0.0016
     17 C         142.8131  140.5485  167.1024 C.3     1  UNL1        0.4189
     18 F         142.9965  139.9112  168.4478 F       1  UNL1       -0.1659
     19 F         143.4344  141.8131  167.6167 F       1  UNL1       -0.1659
     20 F         142.1917  139.2839  166.5881 F       1  UNL1       -0.1659
     21 O         144.3168  141.1494  162.1650 O.3     1  UNL1       -0.4501
     22 C         143.9577  140.0688  161.1886 C.3     1  UNL1        0.2910
     23 N         141.4124  139.8928  161.6788 N.am    1  UNL1       -0.3022
     24 C         142.7326  139.2326  161.4123 C.2     1  UNL1        0.2671
     25 O         142.8277  137.7362  161.3694 O.2     1  UNL1       -0.2711
     26 H         141.3499  140.8750  161.7069 H       1  UNL1        0.1495
     27 C         140.1873  139.0567  161.9025 C.3     1  UNL1        0.0823
     28 C         139.5733  138.3050  160.7588 C.3     1  UNL1        0.0220
     29 C         141.0588  136.9849  164.2685 C.3     1  UNL1        0.0496
     30 C         139.9768  138.0200  164.3573 C.2     1  UNL1        0.0652
     31 N         139.1054  138.2845  165.5492 N.2     1  UNL1       -0.1569
     32 N         138.1663  139.4003  165.1984 N.2     1  UNL1       -0.1569
     33 C         138.4573  139.8253  163.7896 C.2     1  UNL1        0.0652
     34 C         137.7529  140.9126  163.0334 C.3     1  UNL1        0.0496
     35 C         139.5762  138.9723  163.2698 C.3     1  UNL1        0.0935
@<TRIPOS>BOND
     1    29    30    1
     2    30    31    2
     3    31    32    1
     4    32    33    2
     5    33    34    1
     6    33    35    1
     7    35    27    1
     8    27    28    1
     9    27    23    1
    10    23    24   am
    11    24    25    2
    12    24    22    1
    13    22    21    1
    14    21     1    1
    15     1     2   ar
    16     2     3   ar
    17     3    17    1
    18    17    18    1
    19    17    19    1
    20    17    20    1
    21     3     4   ar
    22     4     5   ar
    23     5    11    1
    24    11    12   ar
    25    12    13   ar
    26    13    14   ar
    27    14    15   ar
    28    15    16   ar
    29     5     6   ar
    30     6     7   ar
    31     7     8    1
    32     7     9   ar
    33     9    10   ar
    34    35    30    1
    35    10     1   ar
    36     9     4   ar
    37    16    11   ar
    38    23    26    1
@<TRIPOS>MOLECULE
*****
 35 38 0 0 0
SMALL
GASTEIGER

@<TRIPOS>ATOM
      1 C         142.7460  138.8920  163.2599 C.ar    1  UNL1        0.2266
      2 C         143.2539  139.2172  164.6333 C.ar    1  UNL1        0.0617
      3 C         142.3344  139.8309  165.6471 C.ar    1  UNL1        0.0805
      4 C         140.9070  140.1194  165.2875 C.ar    1  UNL1        0.0590
      5 C         139.7752  140.7154  166.0712 C.ar    1  UNL1        0.1038
      6 N         138.5679  140.7584  165.1821 N.ar    1  UNL1       -0.1679
      7 N         138.9535  140.1891  163.8489 N.ar    1  UNL1       -0.2319
      8 C         138.0518  140.0408  162.6595 C.3     1  UNL1        0.1554
      9 C         140.3991  139.7942  163.9141 C.ar    1  UNL1        0.1639
     10 N         141.3186  139.1805  162.9003 N.ar    1  UNL1       -0.1928
     11 C         139.8396  141.1856  167.4941 C.ar    1  UNL1        0.0194
     12 C         139.4572  140.2576  168.6087 C.ar    1  UNL1        0.0016
     13 C         139.5216  140.7279  170.0316 C.ar    1  UNL1        0.0000
     14 C         139.9683  142.1263  170.3399 C.ar    1  UNL1        0.0000
     15 C         140.3507  143.0543  169.2252 C.ar    1  UNL1        0.0000
     16 C         140.2863  142.5840  167.8023 C.ar    1  UNL1        0.0016
     17 C         142.8423  140.1562  167.0206 C.3     1  UNL1        0.4189
     18 F         143.3501  140.4815  168.3939 F       1  UNL1       -0.1659
     19 F         143.1507  141.5549  166.5752 F       1  UNL1       -0.1659
     20 F         142.5338  138.7574  167.4659 F       1  UNL1       -0.1659
     21 O         143.6655  138.2782  162.2460 O.3     1  UNL1       -0.4501
     22 C         144.1000  139.0721  161.0499 C.3     1  UNL1        0.2910
     23 N         142.3218  140.8298  160.3436 N.am    1  UNL1       -0.3022
     24 C         143.6741  140.5031  160.9044 C.2     1  UNL1        0.2671
     25 O         144.6006  141.6073  161.3196 O.2     1  UNL1       -0.2711
     26 H         141.7137  140.1050  160.0710 H       1  UNL1        0.1495
     27 C         141.8960  142.2606  160.1981 C.3     1  UNL1        0.0823
     28 C         142.5981  143.1565  159.2212 C.3     1  UNL1        0.0220
     29 C         142.0566  143.0716  163.3551 C.3     1  UNL1        0.0496
     30 C         140.8418  143.1684  162.4806 C.2     1  UNL1        0.0652
     31 N         139.4875  143.6550  162.9038 N.2     1  UNL1       -0.1569
     32 N         138.5765  143.5831  161.7142 N.2     1  UNL1       -0.1569
     33 C         139.3679  143.0520  160.5559 C.2     1  UNL1        0.0652
     34 C         138.8502  142.8181  159.1675 C.3     1  UNL1        0.0496
     35 C         140.7679  142.7957  161.0296 C.3     1  UNL1        0.0935
@<TRIPOS>BOND
     1    29    30    1
     2    30    31    2
     3    31    32    1
     4    32    33    2
     5    33    34    1
     6    33    35    1
     7    35    27    1
     8    27    28    1
     9    27    23    1
    10    23    24   am
    11    24    25    2
    12    24    22    1
    13    22    21    1
    14    21     1    1
    15     1     2   ar
    16     2     3   ar
    17     3    17    1
    18    17    18    1
    19    17    19    1
    20    17    20    1
    21     3     4   ar
    22     4     5   ar
    23     5    11    1
    24    11    12   ar
    25    12    13   ar
    26    13    14   ar
    27    14    15   ar
    28    15    16   ar
    29     5     6   ar
    30     6     7   ar
    31     7     8    1
    32     7     9   ar
    33     9    10   ar
    34    35    30    1
    35    10     1   ar
    36     9     4   ar
    37    16    11   ar
    38    23    26    1
@<TRIPOS>MOLECULE
*****
 35 38 0 0 0
SMALL
GASTEIGER

@<TRIPOS>ATOM
      1 C         139.0368  140.0570  163.5827 C.ar    1  UNL1        0.2266
      2 C         138.7291  140.2931  165.0317 C.ar    1  UNL1        0.0617
      3 C         139.8405  140.3283  166.0384 C.ar    1  UNL1        0.0805
      4 C         141.2597  140.1273  165.5961 C.ar    1  UNL1        0.0590
      5 C         142.5541  140.1092  166.3539 C.ar    1  UNL1        0.1038
      6 N         143.6618  139.8619  165.3732 N.ar    1  UNL1       -0.1679
      7 N         143.0520  139.7272  164.0094 N.ar    1  UNL1       -0.2319
      8 C         143.7962  139.4730  162.7321 C.3     1  UNL1        0.1554
      9 C         141.5674  139.8912  164.1472 C.ar    1  UNL1        0.1639
     10 N         140.4560  139.8560  163.1405 N.ar    1  UNL1       -0.1928
     11 C         142.7129  140.3042  167.8327 C.ar    1  UNL1        0.0194
     12 C         142.5909  139.1324  168.7611 C.ar    1  UNL1        0.0016
     13 C         142.7497  139.3274  170.2398 C.ar    1  UNL1        0.0000
     14 C         143.0304  140.6943  170.7902 C.ar    1  UNL1        0.0000
     15 C         143.1524  141.8661  169.8618 C.ar    1  UNL1        0.0000
     16 C         142.9936  141.6711  168.3830 C.ar    1  UNL1        0.0016
     17 C         139.5328  140.5644  167.4874 C.3     1  UNL1        0.4189
     18 F         139.2250  140.8005  168.9364 F       1  UNL1       -0.1659
     19 F         139.1056  139.1336  167.6298 F       1  UNL1       -0.1659
     20 F         139.9599  141.9952  167.3450 F       1  UNL1       -0.1659
     21 O         137.9254  140.0218  162.5759 O.3     1  UNL1       -0.4501
     22 C         137.7246  141.1765  161.6398 C.3     1  UNL1        0.2910
     23 N         140.1065  142.1497  161.2800 N.am    1  UNL1       -0.3022
     24 C         138.6708  142.3401  161.6703 C.2     1  UNL1        0.2671
     25 O         138.1812  143.6941  162.0912 O.2     1  UNL1       -0.2711
     26 H         140.4279  141.2611  161.0038 H       1  UNL1        0.1495
     27 C         141.0527  143.3132  161.3105 C.3     1  UNL1        0.0823
     28 C         140.8632  144.4591  160.3612 C.3     1  UNL1        0.0220
     29 C         144.2080  142.8821  160.5978 C.3     1  UNL1        0.0496
     30 C         143.6386  143.1328  161.9627 C.2     1  UNL1        0.0652
     31 N         144.4197  143.2294  163.2397 N.2     1  UNL1       -0.1569
     32 N         143.4521  143.4872  164.3565 N.2     1  UNL1       -0.1569
     33 C         142.0731  143.5500  163.7698 C.2     1  UNL1        0.0652
     34 C         140.8018  143.7898  164.5291 C.3     1  UNL1        0.0496
     35 C         142.1883  143.3310  162.2903 C.3     1  UNL1        0.0935
@<TRIPOS>BOND
     1    29    30    1
     2    30    31    2
     3    31    32    1
     4    32    33    2
     5    33    34    1
     6    33    35    1
     7    35    27    1
     8    27    28    1
     9    27    23    1
    10    23    24   am
    11    24    25    2
    12    24    22    1
    13    22    21    1
    14    21     1    1
    15     1     2   ar
    16     2     3   ar
    17     3    17    1
    18    17    18    1
    19    17    19    1
    20    17    20    1
    21     3     4   ar
    22     4     5   ar
    23     5    11    1
    24    11    12   ar
    25    12    13   ar
    26    13    14   ar
    27    14    15   ar
    28    15    16   ar
    29     5     6   ar
    30     6     7   ar
    31     7     8    1
    32     7     9   ar
    33     9    10   ar
    34    35    30    1
    35    10     1   ar
    36     9     4   ar
    37    16    11   ar
    38    23    26    1
@<TRIPOS>MOLECULE
*****
 35 38 0 0 0
SMALL
GASTEIGER

@<TRIPOS>ATOM
      1 C         139.5774  143.2325  163.3320 C.ar    1  UNL1        0.2266
      2 C         139.1557  142.6077  164.6288 C.ar    1  UNL1        0.0617
      3 C         140.1906  142.1820  165.6276 C.ar    1  UNL1        0.0805
      4 C         141.6472  142.3810  165.3297 C.ar    1  UNL1        0.0590
      5 C         142.8849  142.0635  166.1154 C.ar    1  UNL1        0.1038
      6 N         144.0716  142.4919  165.3040 N.ar    1  UNL1       -0.1679
      7 N         143.5672  143.0743  164.0170 N.ar    1  UNL1       -0.2319
      8 C         144.4128  143.6280  162.9086 C.3     1  UNL1        0.1554
      9 C         142.0689  143.0058  164.0328 C.ar    1  UNL1        0.1639
     10 N         141.0340  143.4315  163.0340 N.ar    1  UNL1       -0.1928
     11 C         142.9283  141.4289  167.4738 C.ar    1  UNL1        0.0194
     12 C         143.2609  142.2581  168.6787 C.ar    1  UNL1        0.0016
     13 C         143.3043  141.6234  170.0371 C.ar    1  UNL1        0.0000
     14 C         143.0151  140.1596  170.1906 C.ar    1  UNL1        0.0000
     15 C         142.6826  139.3303  168.9857 C.ar    1  UNL1        0.0000
     16 C         142.6392  139.9650  167.6273 C.ar    1  UNL1        0.0016
     17 C         139.7689  141.5573  166.9246 C.3     1  UNL1        0.4189
     18 F         139.3473  140.9326  168.2214 F       1  UNL1       -0.1659
     19 F         140.0309  142.8527  167.6338 F       1  UNL1       -0.1659
     20 F         139.5069  140.2618  166.2154 F       1  UNL1       -0.1659
     21 O         138.5426  143.6582  162.3330 O.3     1  UNL1       -0.4501
     22 C         138.0959  142.7059  161.2636 C.3     1  UNL1        0.2910
     23 N         140.0103  140.9505  161.2034 N.am    1  UNL1       -0.3022
     24 C         138.5491  141.2763  161.2954 C.2     1  UNL1        0.2671
     25 O         137.5409  140.1726  161.4192 O.2     1  UNL1       -0.2711
     26 H         140.6720  141.6749  161.1222 H       1  UNL1        0.1495
     27 C         140.4634  139.5209  161.2352 C.3     1  UNL1        0.0823
     28 C         140.3440  138.6688  160.0065 C.3     1  UNL1        0.0220
     29 C         143.5151  139.9267  162.3180 C.3     1  UNL1        0.0496
     30 C         142.4385  139.1299  162.9934 C.2     1  UNL1        0.0652
     31 N         142.5757  138.3798  164.2851 N.2     1  UNL1       -0.1569
     32 N         141.2577  137.7296  164.5857 N.2     1  UNL1       -0.1569
     33 C         140.3061  138.0780  163.4798 C.2     1  UNL1        0.0652
     34 C         138.8757  137.6381  163.3762 C.3     1  UNL1        0.0496
     35 C         141.0359  138.9434  162.4957 C.3     1  UNL1        0.0935
@<TRIPOS>BOND
     1    29    30    1
     2    30    31    2
     3    31    32    1
     4    32    33    2
     5    33    34    1
     6    33    35    1
     7    35    27    1
     8    27    28    1
     9    27    23    1
    10    23    24   am
    11    24    25    2
    12    24    22    1
    13    22    21    1
    14    21     1    1
    15     1     2   ar
    16     2     3   ar
    17     3    17    1
    18    17    18    1
    19    17    19    1
    20    17    20    1
    21     3     4   ar
    22     4     5   ar
    23     5    11    1
    24    11    12   ar
    25    12    13   ar
    26    13    14   ar
    27    14    15   ar
    28    15    16   ar
    29     5     6   ar
    30     6     7   ar
    31     7     8    1
    32     7     9   ar
    33     9    10   ar
    34    35    30    1
    35    10     1   ar
    36     9     4   ar
    37    16    11   ar
    38    23    26    1
