@<TRIPOS>MOLECULE
*****
 32 35 0 0 0
SMALL
GASTEIGER

@<TRIPOS>ATOM
      1 C         140.9878  139.8670  162.2836 C.3     1  UNL1        0.0667
      2 C         139.7213  139.0759  162.1423 C.3     1  UNL1        0.0337
      3 C         139.2917  138.5829  160.7924 C.3     1  UNL1        0.0735
      4 N         140.1286  138.8809  159.5837 N.3     1  UNL1       -0.2714
      5 C         139.6990  138.3879  158.2338 C.3     1  UNL1        0.0896
      6 C         141.3951  139.6720  159.7251 C.3     1  UNL1        0.0735
      7 C         141.8248  140.1651  161.0750 C.3     1  UNL1        0.0337
      8 N         140.5363  139.8406  163.7138 N.3     1  UNL1       -0.2711
      9 C         141.5238  139.5583  164.8070 C.3     1  UNL1        0.0897
     10 C         141.0722  139.5318  166.2371 C.3     1  UNL1        0.0899
     11 N         139.6331  139.7876  166.5741 N.3     1  UNL1       -0.2665
     12 C         138.6456  140.0699  165.4810 C.3     1  UNL1        0.0899
     13 C         139.0972  140.0964  164.0508 C.3     1  UNL1        0.0897
     14 C         139.1816  139.7611  168.0044 C.3     1  UNL1        0.0992
     15 C         139.8799  140.6075  169.0271 C.ar    1  UNL1       -0.0061
     16 C         140.2901  140.0109  170.3408 C.ar    1  UNL1       -0.0029
     17 C         140.9884  140.8573  171.3635 C.ar    1  UNL1       -0.0003
     18 C         141.2765  142.3004  171.0726 C.ar    1  UNL1       -0.0000
     19 C         140.8662  142.8970  169.7589 C.ar    1  UNL1       -0.0003
     20 C         140.1680  142.0506  168.7362 C.ar    1  UNL1       -0.0029
     21 C         142.0975  140.6490  162.9217 C.3     1  UNL1        0.1128
     22 C         143.2788  142.9066  162.4142 C.2     1  UNL1        0.2294
     23 O         144.5065  142.1654  161.9745 O.2     1  UNL1       -0.2745
     24 N         142.0743  142.1484  162.8877 N.am    1  UNL1       -0.2573
     25 C         140.8466  142.8896  163.3274 C.ar    1  UNL1        0.0539
     26 C         140.6690  143.2570  164.7708 C.ar    1  UNL1        0.0149
     27 C         139.4413  143.9982  165.2105 C.ar    1  UNL1        0.0013
     28 C         138.3912  144.3720  164.2067 C.ar    1  UNL1        0.0001
     29 C         138.5688  144.0046  162.7634 C.ar    1  UNL1        0.0013
     30 C         139.7965  143.2634  162.3236 C.ar    1  UNL1        0.0149
     31 C         143.6531  145.1901  163.5957 C.3     1  UNL1        0.0101
     32 C         143.2556  144.4061  162.3802 C.3     1  UNL1        0.0856
@<TRIPOS>BOND
     1    31    32    1
     2    32    22    1
     3    22    23    2
     4    22    24   am
     5    24    21    1
     6    21     1    1
     7     1     8    1
     8     8     9    1
     9     9    10    1
    10    10    11    1
    11    11    14    1
    12    14    15    1
    13    15    16   ar
    14    16    17   ar
    15    17    18   ar
    16    18    19   ar
    17    19    20   ar
    18    11    12    1
    19    12    13    1
    20     1     2    1
    21     2     3    1
    22     3     4    1
    23     4     5    1
    24     4     6    1
    25     6     7    1
    26    24    25    1
    27    25    26   ar
    28    26    27   ar
    29    27    28   ar
    30    28    29   ar
    31    29    30   ar
    32     7     1    1
    33    30    25   ar
    34    13     8    1
    35    20    15   ar
@<TRIPOS>MOLECULE
*****
 32 35 0 0 0
SMALL
GASTEIGER

@<TRIPOS>ATOM
      1 C         141.2683  140.8693  166.7859 C.3     1  UNL1        0.0667
      2 C         140.0944  140.2795  167.5098 C.3     1  UNL1        0.0337
      3 C         139.9590  140.4614  168.9926 C.3     1  UNL1        0.0735
      4 N         140.9976  141.2331  169.7514 N.3     1  UNL1       -0.2714
      5 C         140.8622  141.4149  171.2342 C.3     1  UNL1        0.0896
      6 C         142.1715  141.8229  169.0276 C.3     1  UNL1        0.0735
      7 C         142.3069  141.6410  167.5448 C.3     1  UNL1        0.0337
      8 N         140.5509  140.2247  165.6370 N.3     1  UNL1       -0.2711
      9 C         141.3171  139.4138  164.6344 C.3     1  UNL1        0.0897
     10 C         140.5997  138.7692  163.4856 C.3     1  UNL1        0.0899
     11 N         139.1162  138.9357  163.3394 N.3     1  UNL1       -0.2665
     12 C         138.3500  139.7466  164.3420 C.3     1  UNL1        0.0899
     13 C         139.0674  140.3912  165.4908 C.3     1  UNL1        0.0897
     14 C         138.3988  138.2910  162.1904 C.3     1  UNL1        0.0992
     15 C         138.5678  138.8326  160.8019 C.ar    1  UNL1       -0.0061
     16 C         137.6921  139.9518  160.3216 C.ar    1  UNL1       -0.0029
     17 C         137.8612  140.4933  158.9330 C.ar    1  UNL1       -0.0003
     18 C         138.9058  139.9156  158.0247 C.ar    1  UNL1       -0.0000
     19 C         139.7814  138.7964  158.5050 C.ar    1  UNL1       -0.0003
     20 C         139.6124  138.2549  159.8935 C.ar    1  UNL1       -0.0029
     21 C         142.1931  141.2353  165.6630 C.3     1  UNL1        0.1128
     22 C         143.3485  143.4050  164.8220 C.2     1  UNL1        0.2294
     23 O         144.6803  142.8598  165.2452 O.2     1  UNL1       -0.2745
     24 N         142.1049  142.5927  165.0309 N.am    1  UNL1       -0.2573
     25 C         140.7731  143.1378  164.6076 C.ar    1  UNL1        0.0539
     26 C         140.2624  142.8774  163.2215 C.ar    1  UNL1        0.0149
     27 C         138.9306  143.4226  162.7983 C.ar    1  UNL1        0.0013
     28 C         138.1096  144.2281  163.7611 C.ar    1  UNL1        0.0001
     29 C         138.6204  144.4885  165.1472 C.ar    1  UNL1        0.0013
     30 C         139.9521  143.9434  165.5705 C.ar    1  UNL1        0.0149
     31 C         143.4740  144.9175  162.7132 C.3     1  UNL1        0.0101
     32 C         143.2604  144.7624  164.1898 C.3     1  UNL1        0.0856
@<TRIPOS>BOND
     1    31    32    1
     2    32    22    1
     3    22    23    2
     4    22    24   am
     5    24    21    1
     6    21     1    1
     7     1     8    1
     8     8     9    1
     9     9    10    1
    10    10    11    1
    11    11    14    1
    12    14    15    1
    13    15    16   ar
    14    16    17   ar
    15    17    18   ar
    16    18    19   ar
    17    19    20   ar
    18    11    12    1
    19    12    13    1
    20     1     2    1
    21     2     3    1
    22     3     4    1
    23     4     5    1
    24     4     6    1
    25     6     7    1
    26    24    25    1
    27    25    26   ar
    28    26    27   ar
    29    27    28   ar
    30    28    29   ar
    31    29    30   ar
    32     7     1    1
    33    30    25   ar
    34    13     8    1
    35    20    15   ar
@<TRIPOS>MOLECULE
*****
 32 35 0 0 0
SMALL
GASTEIGER

@<TRIPOS>ATOM
      1 C         140.7896  139.9916  161.9550 C.3     1  UNL1        0.0667
      2 C         141.6731  138.8093  162.2217 C.3     1  UNL1        0.0337
      3 C         142.2791  138.0525  161.0772 C.3     1  UNL1        0.0735
      4 N         142.0015  138.4781  159.6658 N.3     1  UNL1       -0.2714
      5 C         142.6075  137.7213  158.5213 C.3     1  UNL1        0.0896
      6 C         141.1179  139.6604  159.3991 C.3     1  UNL1        0.0735
      7 C         140.5119  140.4173  160.5436 C.3     1  UNL1        0.0337
      8 N         140.7563  139.9746  163.4545 N.3     1  UNL1       -0.2711
      9 C         142.0223  139.7624  164.2305 C.3     1  UNL1        0.0897
     10 C         141.9889  139.7454  165.7300 C.3     1  UNL1        0.0899
     11 N         140.6896  139.9407  166.4536 N.3     1  UNL1       -0.2665
     12 C         139.4236  140.1530  165.6776 C.3     1  UNL1        0.0899
     13 C         139.4569  140.1700  164.1781 C.3     1  UNL1        0.0897
     14 C         140.6563  139.9237  167.9531 C.3     1  UNL1        0.0992
     15 C         141.3056  141.0302  168.7303 C.ar    1  UNL1       -0.0061
     16 C         140.5103  142.2415  169.1178 C.ar    1  UNL1       -0.0029
     17 C         141.1597  143.3480  169.8950 C.ar    1  UNL1       -0.0003
     18 C         142.6043  143.2432  170.2847 C.ar    1  UNL1       -0.0000
     19 C         143.3997  142.0318  169.8972 C.ar    1  UNL1       -0.0003
     20 C         142.7504  140.9254  169.1200 C.ar    1  UNL1       -0.0029
     21 C         139.8944  141.1682  162.2090 C.3     1  UNL1        0.1128
     22 C         139.5688  143.5398  161.1995 C.2     1  UNL1        0.2294
     23 O         138.2310  143.1270  160.6611 O.2     1  UNL1       -0.2745
     24 N         140.4005  142.5604  161.9734 N.am    1  UNL1       -0.2573
     25 C         141.7384  142.9732  162.5118 C.ar    1  UNL1        0.0539
     26 C         142.9518  142.9129  161.6320 C.ar    1  UNL1        0.0149
     27 C         144.2896  143.3257  162.1704 C.ar    1  UNL1        0.0013
     28 C         144.4140  143.7988  163.5884 C.ar    1  UNL1        0.0001
     29 C         143.2005  143.8590  164.4680 C.ar    1  UNL1        0.0013
     30 C         141.8627  143.4462  163.9298 C.ar    1  UNL1        0.0149
     31 C         139.7392  146.0263  161.9333 C.3     1  UNL1        0.0101
     32 C         140.0749  144.9320  160.9638 C.3     1  UNL1        0.0856
@<TRIPOS>BOND
     1    31    32    1
     2    32    22    1
     3    22    23    2
     4    22    24   am
     5    24    21    1
     6    21     1    1
     7     1     8    1
     8     8     9    1
     9     9    10    1
    10    10    11    1
    11    11    14    1
    12    14    15    1
    13    15    16   ar
    14    16    17   ar
    15    17    18   ar
    16    18    19   ar
    17    19    20   ar
    18    11    12    1
    19    12    13    1
    20     1     2    1
    21     2     3    1
    22     3     4    1
    23     4     5    1
    24     4     6    1
    25     6     7    1
    26    24    25    1
    27    25    26   ar
    28    26    27   ar
    29    27    28   ar
    30    28    29   ar
    31    29    30   ar
    32     7     1    1
    33    30    25   ar
    34    13     8    1
    35    20    15   ar
@<TRIPOS>MOLECULE
*****
 32 35 0 0 0
SMALL
GASTEIGER

@<TRIPOS>ATOM
      1 C         141.5020  140.5712  161.7096 C.3     1  UNL1        0.0667
      2 C         140.9060  139.2183  161.9633 C.3     1  UNL1        0.0337
      3 C         140.3448  138.4204  160.8239 C.3     1  UNL1        0.0735
      4 N         140.3796  138.9753  159.4308 N.3     1  UNL1       -0.2714
      5 C         139.8184  138.1774  158.2914 C.3     1  UNL1        0.0896
      6 C         140.9756  140.3282  159.1771 C.3     1  UNL1        0.0735
      7 C         141.5368  141.1262  160.3165 C.3     1  UNL1        0.0337
      8 N         141.6978  140.4745  163.1937 N.3     1  UNL1       -0.2711
      9 C         143.0648  140.6570  163.7833 C.3     1  UNL1        0.0897
     10 C         143.2606  140.5603  165.2673 C.3     1  UNL1        0.0899
     11 N         142.0892  140.2810  166.1617 N.3     1  UNL1       -0.2665
     12 C         140.7221  140.0985  165.5721 C.3     1  UNL1        0.0899
     13 C         140.5264  140.1952  164.0881 C.3     1  UNL1        0.0897
     14 C         142.2850  140.1843  167.6458 C.3     1  UNL1        0.0992
     15 C         141.4704  141.0429  168.5673 C.ar    1  UNL1       -0.0061
     16 C         140.2371  140.4873  169.2155 C.ar    1  UNL1       -0.0029
     17 C         139.4225  141.3460  170.1370 C.ar    1  UNL1       -0.0003
     18 C         139.8413  142.7602  170.4103 C.ar    1  UNL1       -0.0000
     19 C         141.0747  143.3157  169.7621 C.ar    1  UNL1       -0.0003
     20 C         141.8892  142.4571  168.8406 C.ar    1  UNL1       -0.0029
     21 C         142.1660  141.8906  161.9713 C.3     1  UNL1        0.1128
     22 C         141.7977  144.1402  160.7251 C.2     1  UNL1        0.2294
     23 O         142.9679  143.8393  159.8361 O.2     1  UNL1       -0.2745
     24 N         141.3968  143.1658  161.7927 N.am    1  UNL1       -0.2573
     25 C         140.2267  143.4668  162.6817 C.ar    1  UNL1        0.0539
     26 C         138.8414  143.0823  162.2538 C.ar    1  UNL1        0.0149
     27 C         137.6712  143.3833  163.1428 C.ar    1  UNL1        0.0013
     28 C         137.8865  144.0687  164.4595 C.ar    1  UNL1        0.0001
     29 C         139.2718  144.4531  164.8873 C.ar    1  UNL1        0.0013
     30 C         140.4419  144.1522  163.9984 C.ar    1  UNL1        0.0149
     31 C         140.2380  145.6452  159.2925 C.3     1  UNL1        0.0101
     32 C         141.0286  145.4155  160.5463 C.3     1  UNL1        0.0856
@<TRIPOS>BOND
     1    31    32    1
     2    32    22    1
     3    22    23    2
     4    22    24   am
     5    24    21    1
     6    21     1    1
     7     1     8    1
     8     8     9    1
     9     9    10    1
    10    10    11    1
    11    11    14    1
    12    14    15    1
    13    15    16   ar
    14    16    17   ar
    15    17    18   ar
    16    18    19   ar
    17    19    20   ar
    18    11    12    1
    19    12    13    1
    20     1     2    1
    21     2     3    1
    22     3     4    1
    23     4     5    1
    24     4     6    1
    25     6     7    1
    26    24    25    1
    27    25    26   ar
    28    26    27   ar
    29    27    28   ar
    30    28    29   ar
    31    29    30   ar
    32     7     1    1
    33    30    25   ar
    34    13     8    1
    35    20    15   ar
@<TRIPOS>MOLECULE
*****
 32 35 0 0 0
SMALL
GASTEIGER

@<TRIPOS>ATOM
      1 C         142.5538  140.3077  161.8749 C.3     1  UNL1        0.0667
      2 C         142.5210  138.8165  162.0335 C.3     1  UNL1        0.0337
      3 C         142.5305  137.9330  160.8214 C.3     1  UNL1        0.0735
      4 N         142.5727  138.5407  159.4506 N.3     1  UNL1       -0.2714
      5 C         142.5821  137.6571  158.2385 C.3     1  UNL1        0.0896
      6 C         142.6055  140.0319  159.2920 C.3     1  UNL1        0.0735
      7 C         142.5961  140.9154  160.5041 C.3     1  UNL1        0.0337
      8 N         142.5188  140.2056  163.3710 N.3     1  UNL1       -0.2711
      9 C         141.5264  139.2999  164.0379 C.3     1  UNL1        0.0897
     10 C         141.4914  139.1978  165.5340 C.3     1  UNL1        0.0899
     11 N         142.4487  140.0016  166.3632 N.3     1  UNL1       -0.2665
     12 C         143.4410  140.9073  165.6963 C.3     1  UNL1        0.0899
     13 C         143.4761  141.0094  164.2002 C.3     1  UNL1        0.0897
     14 C         142.4136  139.8995  167.8594 C.3     1  UNL1        0.0992
     15 C         141.5862  140.8629  168.6576 C.ar    1  UNL1       -0.0061
     16 C         142.0971  142.2476  168.9253 C.ar    1  UNL1       -0.0029
     17 C         141.2696  143.2110  169.7236 C.ar    1  UNL1       -0.0003
     18 C         139.9314  142.7897  170.2542 C.ar    1  UNL1       -0.0000
     19 C         139.4205  141.4050  169.9866 C.ar    1  UNL1       -0.0003
     20 C         140.2479  140.4416  169.1883 C.ar    1  UNL1       -0.0029
     21 C         142.5745  141.7635  162.2359 C.3     1  UNL1        0.1128
     22 C         141.5130  143.9303  161.2726 C.2     1  UNL1        0.2294
     23 O         142.8662  144.3912  160.8181 O.2     1  UNL1       -0.2745
     24 N         141.3672  142.6165  161.9815 N.am    1  UNL1       -0.2573
     25 C         140.0140  142.1556  162.4360 C.ar    1  UNL1        0.0539
     26 C         139.5582  142.4352  163.8375 C.ar    1  UNL1        0.0149
     27 C         138.2050  141.9743  164.2920 C.ar    1  UNL1        0.0013
     28 C         137.3077  141.2340  163.3450 C.ar    1  UNL1        0.0001
     29 C         137.7636  140.9545  161.9436 C.ar    1  UNL1        0.0013
     30 C         139.1167  141.4153  161.4890 C.ar    1  UNL1        0.0149
     31 C         139.9921  145.9310  161.9318 C.3     1  UNL1        0.0101
     32 C         140.3057  144.7834  161.0182 C.3     1  UNL1        0.0856
@<TRIPOS>BOND
     1    31    32    1
     2    32    22    1
     3    22    23    2
     4    22    24   am
     5    24    21    1
     6    21     1    1
     7     1     8    1
     8     8     9    1
     9     9    10    1
    10    10    11    1
    11    11    14    1
    12    14    15    1
    13    15    16   ar
    14    16    17   ar
    15    17    18   ar
    16    18    19   ar
    17    19    20   ar
    18    11    12    1
    19    12    13    1
    20     1     2    1
    21     2     3    1
    22     3     4    1
    23     4     5    1
    24     4     6    1
    25     6     7    1
    26    24    25    1
    27    25    26   ar
    28    26    27   ar
    29    27    28   ar
    30    28    29   ar
    31    29    30   ar
    32     7     1    1
    33    30    25   ar
    34    13     8    1
    35    20    15   ar
@<TRIPOS>MOLECULE
*****
 32 35 0 0 0
SMALL
GASTEIGER

@<TRIPOS>ATOM
      1 C         142.8739  140.8456  165.6472 C.3     1  UNL1        0.0667
      2 C         142.9519  139.4575  166.2103 C.3     1  UNL1        0.0337
      3 C         142.9007  139.2463  167.6945 C.3     1  UNL1        0.0735
      4 N         142.7715  140.4232  168.6156 N.3     1  UNL1       -0.2714
      5 C         142.7204  140.2119  170.0997 C.3     1  UNL1        0.0896
      6 C         142.6935  141.8112  168.0525 C.3     1  UNL1        0.0735
      7 C         142.7446  142.0225  166.5683 C.3     1  UNL1        0.0337
      8 N         142.9900  140.0555  164.3774 N.3     1  UNL1       -0.2711
      9 C         142.1948  138.7958  164.2025 C.3     1  UNL1        0.0897
     10 C         142.3109  138.0058  162.9327 C.3     1  UNL1        0.0899
     11 N         143.2223  138.4756  161.8379 N.3     1  UNL1       -0.2665
     12 C         144.0175  139.7353  162.0128 C.3     1  UNL1        0.0899
     13 C         143.9014  140.5253  163.2825 C.3     1  UNL1        0.0897
     14 C         143.3384  137.6855  160.5680 C.3     1  UNL1        0.0992
     15 C         142.3568  137.9055  159.4554 C.ar    1  UNL1       -0.0061
     16 C         141.0669  138.6223  159.7241 C.ar    1  UNL1       -0.0029
     17 C         140.0852  138.8423  158.6114 C.ar    1  UNL1       -0.0003
     18 C         140.3936  138.3455  157.2301 C.ar    1  UNL1       -0.0000
     19 C         141.6835  137.6287  156.9614 C.ar    1  UNL1       -0.0003
     20 C         142.6651  137.4087  158.0740 C.ar    1  UNL1       -0.0029
     21 C         142.8361  141.9593  164.6431 C.3     1  UNL1        0.1128
     22 C         141.4151  144.0731  164.1309 C.2     1  UNL1        0.2294
     23 O         142.6147  144.9393  164.3772 O.2     1  UNL1       -0.2745
     24 N         141.5258  142.5831  164.2638 N.am    1  UNL1       -0.2573
     25 C         140.3262  141.7169  164.0175 C.ar    1  UNL1        0.0539
     26 C         139.4198  141.3500  165.1550 C.ar    1  UNL1        0.0149
     27 C         138.2202  140.4839  164.9086 C.ar    1  UNL1        0.0013
     28 C         137.9270  139.9847  163.5248 C.ar    1  UNL1        0.0001
     29 C         138.8334  140.3516  162.3874 C.ar    1  UNL1        0.0013
     30 C         140.0330  141.2178  162.6337 C.ar    1  UNL1        0.0149
     31 C         139.0497  144.9186  164.7946 C.3     1  UNL1        0.0101
     32 C         140.1048  144.6970  163.7516 C.3     1  UNL1        0.0856
@<TRIPOS>BOND
     1    31    32    1
     2    32    22    1
     3    22    23    2
     4    22    24   am
     5    24    21    1
     6    21     1    1
     7     1     8    1
     8     8     9    1
     9     9    10    1
    10    10    11    1
    11    11    14    1
    12    14    15    1
    13    15    16   ar
    14    16    17   ar
    15    17    18   ar
    16    18    19   ar
    17    19    20   ar
    18    11    12    1
    19    12    13    1
    20     1     2    1
    21     2     3    1
    22     3     4    1
    23     4     5    1
    24     4     6    1
    25     6     7    1
    26    24    25    1
    27    25    26   ar
    28    26    27   ar
    29    27    28   ar
    30    28    29   ar
    31    29    30   ar
    32     7     1    1
    33    30    25   ar
    34    13     8    1
    35    20    15   ar
@<TRIPOS>MOLECULE
*****
 32 35 0 0 0
SMALL
GASTEIGER

@<TRIPOS>ATOM
      1 C         141.3610  139.6704  165.5309 C.3     1  UNL1        0.0667
      2 C         142.5806  138.9165  165.9716 C.3     1  UNL1        0.0337
      3 C         142.9807  138.9167  167.4173 C.3     1  UNL1        0.0735
      4 N         142.1611  139.6708  168.4222 N.3     1  UNL1       -0.2714
      5 C         142.5612  139.6710  169.8678 C.3     1  UNL1        0.0896
      6 C         140.9415  140.4246  167.9814 C.3     1  UNL1        0.0735
      7 C         140.5414  140.4244  166.5358 C.3     1  UNL1        0.0337
      8 N         141.8113  139.1106  164.2140 N.3     1  UNL1       -0.2711
      9 C         143.2511  139.2166  163.8070 C.3     1  UNL1        0.0897
     10 C         143.7013  138.6568  162.4902 C.3     1  UNL1        0.0899
     11 N         142.7117  137.9911  161.5804 N.3     1  UNL1       -0.2665
     12 C         141.2719  137.8852  161.9875 C.3     1  UNL1        0.0899
     13 C         140.8217  138.4449  163.3043 C.3     1  UNL1        0.0897
     14 C         143.1620  137.4314  160.2636 C.3     1  UNL1        0.0992
     15 C         142.8378  138.1555  158.9906 C.ar    1  UNL1       -0.0061
     16 C         142.7672  139.6538  158.9771 C.ar    1  UNL1       -0.0029
     17 C         142.4430  140.3779  157.7041 C.ar    1  UNL1       -0.0003
     18 C         142.1895  139.6038  156.4446 C.ar    1  UNL1       -0.0000
     19 C         142.2602  138.1055  156.4580 C.ar    1  UNL1       -0.0003
     20 C         142.5843  137.3814  157.7310 C.ar    1  UNL1       -0.0029
     21 C         140.2977  140.2298  164.6327 C.3     1  UNL1        0.1128
     22 C         138.9910  142.4630  164.3984 C.2     1  UNL1        0.2294
     23 O         137.7246  141.7636  164.7947 O.2     1  UNL1       -0.2745
     24 N         140.2776  141.6961  164.3174 N.am    1  UNL1       -0.2573
     25 C         141.5440  142.3956  163.9210 C.ar    1  UNL1        0.0539
     26 C         142.3688  143.0982  164.9583 C.ar    1  UNL1        0.0149
     27 C         143.6352  143.7976  164.5619 C.ar    1  UNL1        0.0013
     28 C         144.0767  143.7944  163.1284 C.ar    1  UNL1        0.0001
     29 C         143.2518  143.0918  162.0912 C.ar    1  UNL1        0.0013
     30 C         141.9854  142.3923  162.4875 C.ar    1  UNL1        0.0149
     31 C         138.8320  144.9327  165.1894 C.3     1  UNL1        0.0101
     32 C         138.9707  143.9293  164.0830 C.3     1  UNL1        0.0856
@<TRIPOS>BOND
     1    31    32    1
     2    32    22    1
     3    22    23    2
     4    22    24   am
     5    24    21    1
     6    21     1    1
     7     1     8    1
     8     8     9    1
     9     9    10    1
    10    10    11    1
    11    11    14    1
    12    14    15    1
    13    15    16   ar
    14    16    17   ar
    15    17    18   ar
    16    18    19   ar
    17    19    20   ar
    18    11    12    1
    19    12    13    1
    20     1     2    1
    21     2     3    1
    22     3     4    1
    23     4     5    1
    24     4     6    1
    25     6     7    1
    26    24    25    1
    27    25    26   ar
    28    26    27   ar
    29    27    28   ar
    30    28    29   ar
    31    29    30   ar
    32     7     1    1
    33    30    25   ar
    34    13     8    1
    35    20    15   ar
@<TRIPOS>MOLECULE
*****
 32 35 0 0 0
SMALL
GASTEIGER

@<TRIPOS>ATOM
      1 C         139.6800  141.4335  165.3738 C.3     1  UNL1        0.0667
      2 C         139.0923  140.6557  164.2339 C.3     1  UNL1        0.0337
      3 C         138.5224  139.2890  164.4734 C.3     1  UNL1        0.0735
      4 N         138.5402  138.7001  165.8529 N.3     1  UNL1       -0.2714
      5 C         137.9703  137.3335  166.0924 C.3     1  UNL1        0.0896
      6 C         139.1279  139.4780  166.9928 C.3     1  UNL1        0.0735
      7 C         139.6978  140.8447  166.7533 C.3     1  UNL1        0.0337
      8 N         139.8918  142.4103  164.2553 N.3     1  UNL1       -0.2711
      9 C         140.8251  142.0721  163.1308 C.3     1  UNL1        0.0897
     10 C         141.0369  143.0489  162.0124 C.3     1  UNL1        0.0899
     11 N         140.3154  144.3640  162.0184 N.3     1  UNL1       -0.2665
     12 C         139.3821  144.7022  163.1429 C.3     1  UNL1        0.0899
     13 C         139.1703  143.7254  164.2613 C.3     1  UNL1        0.0897
     14 C         140.5273  145.3408  160.8999 C.3     1  UNL1        0.0992
     15 C         140.5668  144.8583  159.4802 C.ar    1  UNL1       -0.0061
     16 C         139.6158  143.7919  159.0238 C.ar    1  UNL1       -0.0029
     17 C         139.6554  143.3095  157.6040 C.ar    1  UNL1       -0.0003
     18 C         140.6459  143.8934  156.6407 C.ar    1  UNL1       -0.0000
     19 C         141.5969  144.9598  157.0972 C.ar    1  UNL1       -0.0003
     20 C         141.5574  145.4423  158.5169 C.ar    1  UNL1       -0.0029
     21 C         140.3413  142.5506  166.1253 C.3     1  UNL1        0.1128
     22 C         141.8973  142.5786  168.2056 C.2     1  UNL1        0.2294
     23 O         140.7463  143.0193  169.0606 O.2     1  UNL1       -0.2745
     24 N         141.6948  142.3443  166.7380 N.am    1  UNL1       -0.2573
     25 C         142.8458  141.9036  165.8830 C.ar    1  UNL1        0.0539
     26 C         143.0929  140.4421  165.6533 C.ar    1  UNL1        0.0149
     27 C         144.2440  140.0014  164.7983 C.ar    1  UNL1        0.0013
     28 C         145.1478  141.0223  164.1731 C.ar    1  UNL1        0.0001
     29 C         144.9006  142.4838  164.4028 C.ar    1  UNL1        0.0013
     30 C         143.7496  142.9245  165.2577 C.ar    1  UNL1        0.0149
     31 C         143.4250  141.3909  169.9393 C.3     1  UNL1        0.0101
     32 C         143.2508  142.3723  168.8184 C.3     1  UNL1        0.0856
@<TRIPOS>BOND
     1    31    32    1
     2    32    22    1
     3    22    23    2
     4    22    24   am
     5    24    21    1
     6    21     1    1
     7     1     8    1
     8     8     9    1
     9     9    10    1
    10    10    11    1
    11    11    14    1
    12    14    15    1
    13    15    16   ar
    14    16    17   ar
    15    17    18   ar
    16    18    19   ar
    17    19    20   ar
    18    11    12    1
    19    12    13    1
    20     1     2    1
    21     2     3    1
    22     3     4    1
    23     4     5    1
    24     4     6    1
    25     6     7    1
    26    24    25    1
    27    25    26   ar
    28    26    27   ar
    29    27    28   ar
    30    28    29   ar
    31    29    30   ar
    32     7     1    1
    33    30    25   ar
    34    13     8    1
    35    20    15   ar
@<TRIPOS>MOLECULE
*****
 32 35 0 0 0
SMALL
GASTEIGER

@<TRIPOS>ATOM
      1 C         142.8424  141.7102  162.2109 C.3     1  UNL1        0.0667
      2 C         143.5281  140.4100  161.9123 C.3     1  UNL1        0.0337
      3 C         143.9871  140.1074  160.5167 C.3     1  UNL1        0.0735
      4 N         143.7603  141.1050  159.4197 N.3     1  UNL1       -0.2714
      5 C         144.2193  140.8023  158.0241 C.3     1  UNL1        0.0896
      6 C         143.0746  142.4052  159.7183 C.3     1  UNL1        0.0735
      7 C         142.6156  142.7078  161.1139 C.3     1  UNL1        0.0337
      8 N         142.8294  141.0893  163.5763 N.3     1  UNL1       -0.2711
      9 C         143.0813  141.9368  164.7880 C.3     1  UNL1        0.0897
     10 C         143.0683  141.3159  166.1534 C.3     1  UNL1        0.0899
     11 N         142.8035  139.8475  166.3070 N.3     1  UNL1       -0.2665
     12 C         142.5517  139.0000  165.0953 C.3     1  UNL1        0.0899
     13 C         142.5646  139.6209  163.7300 C.3     1  UNL1        0.0897
     14 C         142.7906  139.2266  167.6725 C.3     1  UNL1        0.0992
     15 C         141.9797  139.8475  168.7711 C.ar    1  UNL1       -0.0061
     16 C         142.6616  140.3877  169.9931 C.ar    1  UNL1       -0.0029
     17 C         141.8507  141.0086  171.0917 C.ar    1  UNL1       -0.0003
     18 C         140.3580  141.0894  170.9683 C.ar    1  UNL1       -0.0000
     19 C         139.6761  140.5492  169.7463 C.ar    1  UNL1       -0.0003
     20 C         140.4869  139.9282  168.6477 C.ar    1  UNL1       -0.0029
     21 C         142.1521  142.7948  162.9837 C.3     1  UNL1        0.1128
     22 C         140.0159  144.2691  162.8715 C.2     1  UNL1        0.2294
     23 O         140.8685  145.5032  162.8546 O.2     1  UNL1       -0.2745
     24 N         140.6578  142.9150  162.9361 N.am    1  UNL1       -0.2573
     25 C         139.8052  141.6809  162.9531 C.ar    1  UNL1        0.0539
     26 C         139.4074  141.0264  161.6633 C.ar    1  UNL1        0.0149
     27 C         138.5548  139.7923  161.6803 C.ar    1  UNL1        0.0013
     28 C         138.1001  139.2129  162.9870 C.ar    1  UNL1        0.0001
     29 C         138.4979  139.8674  164.2766 C.ar    1  UNL1        0.0013
     30 C         139.3504  141.1014  164.2597 C.ar    1  UNL1        0.0149
     31 C         137.7263  144.3678  164.0956 C.3     1  UNL1        0.0101
     32 C         138.5215  144.3894  162.8239 C.3     1  UNL1        0.0856
@<TRIPOS>BOND
     1    31    32    1
     2    32    22    1
     3    22    23    2
     4    22    24   am
     5    24    21    1
     6    21     1    1
     7     1     8    1
     8     8     9    1
     9     9    10    1
    10    10    11    1
    11    11    14    1
    12    14    15    1
    13    15    16   ar
    14    16    17   ar
    15    17    18   ar
    16    18    19   ar
    17    19    20   ar
    18    11    12    1
    19    12    13    1
    20     1     2    1
    21     2     3    1
    22     3     4    1
    23     4     5    1
    24     4     6    1
    25     6     7    1
    26    24    25    1
    27    25    26   ar
    28    26    27   ar
    29    27    28   ar
    30    28    29   ar
    31    29    30   ar
    32     7     1    1
    33    30    25   ar
    34    13     8    1
    35    20    15   ar
