@<TRIPOS>MOLECULE
*****
 35 38 0 0 0
SMALL
GASTEIGER

@<TRIPOS>ATOM
      1 N         140.9739  140.8405  159.3987 N.3     1  UNL1       -0.2673
      2 C         139.4887  140.7704  159.5969 C.3     1  UNL1        0.1035
      3 C         138.8162  141.7008  160.5623 C.3     1  UNL1        0.1470
      4 C         138.1436  142.6314  161.5276 C.3     1  UNL1        0.1035
      5 N         138.9563  143.6319  162.2947 N.3     1  UNL1       -0.2684
      6 C         140.4415  143.7020  162.0964 C.3     1  UNL1        0.1035
      7 C         141.1140  142.7715  161.1311 C.3     1  UNL1        0.1470
      8 C         141.7865  141.8410  160.1657 C.3     1  UNL1        0.1035
      9 O         139.6289  142.7014  161.3293 O.3     1  UNL1       -0.3530
     10 C         141.6464  139.9099  158.4333 C.3     1  UNL1        0.0913
     11 C         143.0580  139.4662  158.6791 C.3     1  UNL1        0.1087
     12 N         143.3291  138.2772  159.5526 N.3     1  UNL1       -0.1780
     13 H         142.6570  137.5573  159.2870 H       1  UNL1        0.1488
     14 S         143.2541  138.4101  161.0448 S.O2    1  UNL1        0.0603
     15 O         144.3751  139.4062  161.0124 O.2     1  UNL1       -0.1530
     16 O         142.1332  137.4140  161.0772 O.2     1  UNL1       -0.1530
     17 C         143.0293  138.8090  165.5214 C.ar    1  UNL1        0.0685
     18 C         141.9347  138.1055  164.7753 C.ar    1  UNL1        0.0116
     19 C         142.0096  137.9725  163.2830 C.ar    1  UNL1        0.0206
     20 C         143.1792  138.5431  162.5370 C.ar    1  UNL1        0.1220
     21 C         144.2739  139.2466  163.2832 C.ar    1  UNL1        0.0206
     22 C         144.1989  139.3795  164.7754 C.ar    1  UNL1        0.0116
     23 N         142.8795  139.0749  168.5059 N.1     1  UNL1       -0.1908
     24 C         142.9544  138.9419  167.0136 C.1     1  UNL1        0.1004
     25 C         138.2838  144.5624  163.2600 C.3     1  UNL1        0.0761
     26 C         138.1642  144.1842  164.7067 C.3     1  UNL1        0.0646
     27 C         139.3993  143.9677  165.5298 C.3     1  UNL1        0.2068
     28 O         140.2239  142.7302  165.3336 O.3     1  UNL1       -0.4754
     29 C         139.6327  141.3817  165.6205 C.ar    1  UNL1        0.1387
     30 C         138.9969  140.5911  164.5156 C.ar    1  UNL1        0.0392
     31 C         138.4058  139.2427  164.8025 C.ar    1  UNL1        0.0327
     32 C         138.4505  138.6849  166.1942 C.ar    1  UNL1        0.1403
     33 F         137.8593  137.3364  166.4811 F       1  UNL1       -0.2042
     34 C         139.0862  139.4755  167.2991 C.ar    1  UNL1        0.0327
     35 C         139.6774  140.8239  167.0122 C.ar    1  UNL1        0.0392
@<TRIPOS>BOND
     1    23    24    3
     2    24    17    1
     3    17    18   ar
     4    18    19   ar
     5    19    20   ar
     6    20    14    1
     7    14    15    2
     8    14    16    2
     9    14    12    1
    10    12    11    1
    11    11    10    1
    12    10     1    1
    13     1     2    1
    14     2     3    1
    15     3     4    1
    16     4     5    1
    17     5    25    1
    18    25    26    1
    19    26    27    1
    20    27    28    1
    21    28    29    1
    22    29    30   ar
    23    30    31   ar
    24    31    32   ar
    25    32    33    1
    26    32    34   ar
    27    34    35   ar
    28     5     6    1
    29     6     7    1
    30     7     8    1
    31     7     9    1
    32    20    21   ar
    33    21    22   ar
    34    22    17   ar
    35     8     1    1
    36     9     3    1
    37    35    29   ar
    38    12    13    1
@<TRIPOS>MOLECULE
*****
 35 38 0 0 0
SMALL
GASTEIGER

@<TRIPOS>ATOM
      1 N         140.8671  140.7144  159.2315 N.3     1  UNL1       -0.2673
      2 C         141.1878  142.1794  159.2601 C.3     1  UNL1        0.1035
      3 C         140.4276  143.0958  160.1723 C.3     1  UNL1        0.1470
      4 C         139.6674  144.0124  161.0845 C.3     1  UNL1        0.1035
      5 N         138.5864  143.4638  161.9681 N.3     1  UNL1       -0.2684
      6 C         138.2657  141.9987  161.9394 C.3     1  UNL1        0.1035
      7 C         139.0260  141.0823  161.0273 C.3     1  UNL1        0.1470
      8 C         139.7862  140.1658  160.1151 C.3     1  UNL1        0.1035
      9 O         139.3467  142.5473  161.0559 O.3     1  UNL1       -0.3530
     10 C         141.6273  139.7978  158.3193 C.3     1  UNL1        0.0913
     11 C         142.0535  138.4432  158.8022 C.3     1  UNL1        0.1087
     12 N         143.3015  138.2974  159.6217 N.3     1  UNL1       -0.1780
     13 H         143.6773  137.3701  159.4233 H       1  UNL1        0.1488
     14 S         143.2381  138.4287  161.1145 S.O2    1  UNL1        0.0603
     15 O         144.3365  139.4492  161.0714 O.2     1  UNL1       -0.1530
     16 O         142.1396  137.4081  161.1576 O.2     1  UNL1       -0.1530
     17 C         143.0479  138.8225  165.5932 C.ar    1  UNL1        0.0685
     18 C         144.2908  139.2263  164.8570 C.ar    1  UNL1        0.0116
     19 C         144.3542  139.0950  163.3640 C.ar    1  UNL1        0.0206
     20 C         143.1747  138.5599  162.6074 C.ar    1  UNL1        0.1220
     21 C         141.9317  138.1561  163.3437 C.ar    1  UNL1        0.0206
     22 C         141.8684  138.2874  164.8366 C.ar    1  UNL1        0.0116
     23 N         142.9211  139.0850  168.5790 N.1     1  UNL1       -0.1908
     24 C         142.9845  138.9538  167.0861 C.1     1  UNL1        0.1004
     25 C         137.8262  144.3803  162.8802 C.3     1  UNL1        0.0761
     26 C         137.8336  144.1402  164.3609 C.3     1  UNL1        0.0646
     27 C         138.9702  144.6483  165.1975 C.3     1  UNL1        0.2068
     28 O         140.1612  143.7736  165.4552 O.3     1  UNL1       -0.4754
     29 C         141.2531  143.6725  164.4316 C.ar    1  UNL1        0.1387
     30 C         141.9478  144.9121  163.9513 C.ar    1  UNL1        0.0392
     31 C         143.0397  144.8111  162.9278 C.ar    1  UNL1        0.0327
     32 C         143.4368  143.4704  162.3847 C.ar    1  UNL1        0.1403
     33 F         144.5287  143.3694  161.3611 F       1  UNL1       -0.2042
     34 C         142.7421  142.2309  162.8650 C.ar    1  UNL1        0.0327
     35 C         141.6502  142.3319  163.8885 C.ar    1  UNL1        0.0392
@<TRIPOS>BOND
     1    23    24    3
     2    24    17    1
     3    17    18   ar
     4    18    19   ar
     5    19    20   ar
     6    20    14    1
     7    14    15    2
     8    14    16    2
     9    14    12    1
    10    12    11    1
    11    11    10    1
    12    10     1    1
    13     1     2    1
    14     2     3    1
    15     3     4    1
    16     4     5    1
    17     5    25    1
    18    25    26    1
    19    26    27    1
    20    27    28    1
    21    28    29    1
    22    29    30   ar
    23    30    31   ar
    24    31    32   ar
    25    32    33    1
    26    32    34   ar
    27    34    35   ar
    28     5     6    1
    29     6     7    1
    30     7     8    1
    31     7     9    1
    32    20    21   ar
    33    21    22   ar
    34    22    17   ar
    35     8     1    1
    36     9     3    1
    37    35    29   ar
    38    12    13    1
@<TRIPOS>MOLECULE
*****
 35 38 0 0 0
SMALL
GASTEIGER

@<TRIPOS>ATOM
      1 N         140.8670  141.1806  159.2831 N.3     1  UNL1       -0.2673
      2 C         142.3440  140.9490  159.4052 C.3     1  UNL1        0.1035
      3 C         143.1702  141.8296  160.2951 C.3     1  UNL1        0.1470
      4 C         143.9964  142.7102  161.1851 C.3     1  UNL1        0.1035
      5 N         143.3456  143.8224  161.9528 N.3     1  UNL1       -0.2684
      6 C         141.8686  144.0540  161.8307 C.3     1  UNL1        0.1035
      7 C         141.0424  143.1734  160.9408 C.3     1  UNL1        0.1470
      8 C         140.2163  142.2928  160.0509 C.3     1  UNL1        0.1035
      9 O         142.5194  142.9418  161.0629 O.3     1  UNL1       -0.3530
     10 C         140.0408  140.3000  158.3932 C.3     1  UNL1        0.0913
     11 C         139.3182  139.1184  158.9691 C.3     1  UNL1        0.1087
     12 N         138.0995  139.3257  159.8188 N.3     1  UNL1       -0.1780
     13 H         137.6919  140.2172  159.5365 H       1  UNL1        0.1488
     14 S         138.2240  139.3604  161.3131 S.O2    1  UNL1        0.0603
     15 O         137.3846  140.6028  161.3543 O.2     1  UNL1       -0.1530
     16 O         139.0635  138.1179  161.2720 O.2     1  UNL1       -0.1530
     17 C         138.5978  139.4642  165.7964 C.ar    1  UNL1        0.0685
     18 C         138.1988  140.7015  165.0482 C.ar    1  UNL1        0.0116
     19 C         138.0742  140.6669  163.5537 C.ar    1  UNL1        0.0206
     20 C         138.3486  139.3950  162.8075 C.ar    1  UNL1        0.1220
     21 C         138.7476  138.1576  163.5558 C.ar    1  UNL1        0.0206
     22 C         138.8722  138.1922  165.0502 C.ar    1  UNL1        0.0116
     23 N         138.8469  139.5335  168.7852 N.1     1  UNL1       -0.1908
     24 C         138.7223  139.4988  167.2908 C.1     1  UNL1        0.1004
     25 C         144.1718  144.7030  162.8427 C.3     1  UNL1        0.0761
     26 C         143.8744  144.7757  164.3112 C.3     1  UNL1        0.0646
     27 C         144.4211  143.7322  165.2397 C.3     1  UNL1        0.2068
     28 O         143.5725  142.5595  165.6329 O.3     1  UNL1       -0.4754
     29 C         143.4313  141.3906  164.7033 C.ar    1  UNL1        0.1387
     30 C         144.6316  140.5627  164.3518 C.ar    1  UNL1        0.0392
     31 C         144.4904  139.3939  163.4223 C.ar    1  UNL1        0.0327
     32 C         143.1488  139.0531  162.8443 C.ar    1  UNL1        0.1403
     33 F         143.0075  137.8843  161.9148 F       1  UNL1       -0.2042
     34 C         141.9485  139.8811  163.1959 C.ar    1  UNL1        0.0327
     35 C         142.0897  141.0499  164.1254 C.ar    1  UNL1        0.0392
@<TRIPOS>BOND
     1    23    24    3
     2    24    17    1
     3    17    18   ar
     4    18    19   ar
     5    19    20   ar
     6    20    14    1
     7    14    15    2
     8    14    16    2
     9    14    12    1
    10    12    11    1
    11    11    10    1
    12    10     1    1
    13     1     2    1
    14     2     3    1
    15     3     4    1
    16     4     5    1
    17     5    25    1
    18    25    26    1
    19    26    27    1
    20    27    28    1
    21    28    29    1
    22    29    30   ar
    23    30    31   ar
    24    31    32   ar
    25    32    33    1
    26    32    34   ar
    27    34    35   ar
    28     5     6    1
    29     6     7    1
    30     7     8    1
    31     7     9    1
    32    20    21   ar
    33    21    22   ar
    34    22    17   ar
    35     8     1    1
    36     9     3    1
    37    35    29   ar
    38    12    13    1
@<TRIPOS>MOLECULE
*****
 35 38 0 0 0
SMALL
GASTEIGER

@<TRIPOS>ATOM
      1 N         139.5663  143.0978  160.4193 N.3     1  UNL1       -0.2673
      2 C         138.5336  142.9932  161.5021 C.3     1  UNL1        0.1035
      3 C         138.2445  141.6653  162.1369 C.3     1  UNL1        0.1470
      4 C         137.9552  140.3374  162.7717 C.3     1  UNL1        0.1035
      5 N         138.6988  139.1141  162.3237 N.3     1  UNL1       -0.2684
      6 C         139.7315  139.2187  161.2408 C.3     1  UNL1        0.1035
      7 C         140.0207  140.5466  160.6060 C.3     1  UNL1        0.1470
      8 C         140.3099  141.8746  159.9712 C.3     1  UNL1        0.1035
      9 O         138.9880  140.4420  161.6888 O.3     1  UNL1       -0.3530
     10 C         139.8556  144.4258  159.7844 C.3     1  UNL1        0.0913
     11 C         140.6296  145.4653  160.5394 C.3     1  UNL1        0.1087
     12 N         142.0007  145.1490  161.0593 N.3     1  UNL1       -0.1780
     13 H         142.4649  144.5892  160.3440 H       1  UNL1        0.1488
     14 S         142.1596  144.4126  162.3563 S.O2    1  UNL1        0.0603
     15 O         143.1800  143.5148  161.7216 O.2     1  UNL1       -0.1530
     16 O         141.1393  145.3103  162.9910 O.2     1  UNL1       -0.1530
     17 C         142.6363  142.2031  166.2474 C.ar    1  UNL1        0.0685
     18 C         141.4029  142.0030  165.4176 C.ar    1  UNL1        0.0116
     19 C         141.2440  142.7395  164.1205 C.ar    1  UNL1        0.0206
     20 C         142.3185  143.6761  163.6533 C.ar    1  UNL1        0.1220
     21 C         143.5519  143.8762  164.4832 C.ar    1  UNL1        0.0206
     22 C         143.7108  143.1397  165.7803 C.ar    1  UNL1        0.0116
     23 N         142.9540  140.7302  168.8416 N.1     1  UNL1       -0.1908
     24 C         142.7952  141.4667  167.5445 C.1     1  UNL1        0.1004
     25 C         138.4096  137.7862  162.9584 C.3     1  UNL1        0.0761
     26 C         139.4173  137.1574  163.8746 C.3     1  UNL1        0.0646
     27 C         140.3307  138.0225  164.6915 C.3     1  UNL1        0.2068
     28 O         141.7855  137.6763  164.8085 O.3     1  UNL1       -0.4754
     29 C         142.8275  138.6448  164.3327 C.ar    1  UNL1        0.1387
     30 C         142.6556  139.3452  163.0175 C.ar    1  UNL1        0.0392
     31 C         143.6976  140.3137  162.5418 C.ar    1  UNL1        0.0327
     32 C         144.9115  140.5816  163.3812 C.ar    1  UNL1        0.1403
     33 F         145.9535  141.5501  162.9054 F       1  UNL1       -0.2042
     34 C         145.0834  139.8812  164.6964 C.ar    1  UNL1        0.0327
     35 C         144.0414  138.9127  165.1722 C.ar    1  UNL1        0.0392
@<TRIPOS>BOND
     1    23    24    3
     2    24    17    1
     3    17    18   ar
     4    18    19   ar
     5    19    20   ar
     6    20    14    1
     7    14    15    2
     8    14    16    2
     9    14    12    1
    10    12    11    1
    11    11    10    1
    12    10     1    1
    13     1     2    1
    14     2     3    1
    15     3     4    1
    16     4     5    1
    17     5    25    1
    18    25    26    1
    19    26    27    1
    20    27    28    1
    21    28    29    1
    22    29    30   ar
    23    30    31   ar
    24    31    32   ar
    25    32    33    1
    26    32    34   ar
    27    34    35   ar
    28     5     6    1
    29     6     7    1
    30     7     8    1
    31     7     9    1
    32    20    21   ar
    33    21    22   ar
    34    22    17   ar
    35     8     1    1
    36     9     3    1
    37    35    29   ar
    38    12    13    1
@<TRIPOS>MOLECULE
*****
 35 38 0 0 0
SMALL
GASTEIGER

@<TRIPOS>ATOM
      1 N         140.4838  139.5953  159.2931 N.3     1  UNL1       -0.2673
      2 C         139.5832  138.8149  160.2040 C.3     1  UNL1        0.1035
      3 C         138.8249  139.5173  161.2909 C.3     1  UNL1        0.1470
      4 C         138.0665  140.2198  162.3780 C.3     1  UNL1        0.1035
      5 N         138.2088  141.7026  162.5540 N.3     1  UNL1       -0.2684
      6 C         139.1094  142.4830  161.6429 C.3     1  UNL1        0.1035
      7 C         139.8677  141.7805  160.5560 C.3     1  UNL1        0.1470
      8 C         140.6261  141.0781  159.4691 C.3     1  UNL1        0.1035
      9 O         138.9671  141.0002  161.4669 O.3     1  UNL1       -0.3530
     10 C         141.2421  138.8928  158.2060 C.3     1  UNL1        0.0913
     11 C         142.4707  138.1000  158.5405 C.3     1  UNL1        0.1087
     12 N         143.5724  138.7266  159.3429 N.3     1  UNL1       -0.1780
     13 H         144.4293  138.2256  159.1081 H       1  UNL1        0.1488
     14 S         143.4855  138.7578  160.8400 S.O2    1  UNL1        0.0603
     15 O         143.0549  137.3210  160.8450 O.2     1  UNL1       -0.1530
     16 O         143.9161  140.1947  160.8351 O.2     1  UNL1       -0.1530
     17 C         143.2248  138.8515  165.3315 C.ar    1  UNL1        0.0685
     18 C         142.1287  138.2145  164.5298 C.ar    1  UNL1        0.0116
     19 C         142.2156  138.1832  163.0325 C.ar    1  UNL1        0.0206
     20 C         143.3986  138.7890  162.3371 C.ar    1  UNL1        0.1220
     21 C         144.4947  139.4261  163.1390 C.ar    1  UNL1        0.0206
     22 C         144.4078  139.4573  164.6361 C.ar    1  UNL1        0.0116
     23 N         143.0510  138.9140  168.3258 N.1     1  UNL1       -0.1908
     24 C         143.1379  138.8827  166.8286 C.1     1  UNL1        0.1004
     25 C         137.4505  142.4050  163.6409 C.3     1  UNL1        0.0761
     26 C         137.5790  143.8905  163.8056 C.3     1  UNL1        0.0646
     27 C         138.6603  144.4577  164.6768 C.3     1  UNL1        0.2068
     28 O         139.8554  145.1173  164.0552 O.3     1  UNL1       -0.4754
     29 C         141.2180  144.5132  164.2242 C.ar    1  UNL1        0.1387
     30 C         142.4205  145.2032  163.6517 C.ar    1  UNL1        0.0392
     31 C         143.7831  144.5991  163.8207 C.ar    1  UNL1        0.0327
     32 C         143.9431  143.3051  164.5623 C.ar    1  UNL1        0.1403
     33 F         145.3057  142.7011  164.7314 F       1  UNL1       -0.2042
     34 C         142.7405  142.6152  165.1349 C.ar    1  UNL1        0.0327
     35 C         141.3780  143.2193  164.9658 C.ar    1  UNL1        0.0392
@<TRIPOS>BOND
     1    23    24    3
     2    24    17    1
     3    17    18   ar
     4    18    19   ar
     5    19    20   ar
     6    20    14    1
     7    14    15    2
     8    14    16    2
     9    14    12    1
    10    12    11    1
    11    11    10    1
    12    10     1    1
    13     1     2    1
    14     2     3    1
    15     3     4    1
    16     4     5    1
    17     5    25    1
    18    25    26    1
    19    26    27    1
    20    27    28    1
    21    28    29    1
    22    29    30   ar
    23    30    31   ar
    24    31    32   ar
    25    32    33    1
    26    32    34   ar
    27    34    35   ar
    28     5     6    1
    29     6     7    1
    30     7     8    1
    31     7     9    1
    32    20    21   ar
    33    21    22   ar
    34    22    17   ar
    35     8     1    1
    36     9     3    1
    37    35    29   ar
    38    12    13    1
@<TRIPOS>MOLECULE
*****
 35 38 0 0 0
SMALL
GASTEIGER

@<TRIPOS>ATOM
      1 N         141.9930  143.8888  161.1044 N.3     1  UNL1       -0.2673
      2 C         141.5994  142.4824  160.7621 C.3     1  UNL1        0.1035
      3 C         142.1688  141.3337  161.5408 C.3     1  UNL1        0.1470
      4 C         142.7381  140.1849  162.3194 C.3     1  UNL1        0.1035
      5 N         143.7011  140.4426  163.4402 N.3     1  UNL1       -0.2684
      6 C         144.0947  141.8491  163.7825 C.3     1  UNL1        0.1035
      7 C         143.5253  142.9977  163.0039 C.3     1  UNL1        0.1470
      8 C         142.9560  144.1464  162.2253 C.3     1  UNL1        0.1035
      9 O         143.1317  141.5914  162.6616 O.3     1  UNL1       -0.3530
     10 C         141.4237  145.0376  160.3258 C.3     1  UNL1        0.0913
     11 C         139.9598  145.3521  160.4154 C.3     1  UNL1        0.1087
     12 N         139.3043  145.4958  161.7570 N.3     1  UNL1       -0.1780
     13 H         139.8861  146.1319  162.3024 H       1  UNL1        0.1488
     14 S         139.0691  144.2849  162.6104 S.O2    1  UNL1        0.0603
     15 O         138.2507  143.6709  161.5135 O.2     1  UNL1       -0.1530
     16 O         139.8876  144.8989  163.7072 O.2     1  UNL1       -0.1530
     17 C         138.3636  140.6520  165.1705 C.ar    1  UNL1        0.0685
     18 C         137.6522  140.7939  163.8576 C.ar    1  UNL1        0.0116
     19 C         137.8874  142.0049  163.0042 C.ar    1  UNL1        0.0206
     20 C         138.8339  143.0739  163.4637 C.ar    1  UNL1        0.1220
     21 C         139.5453  142.9320  164.7767 C.ar    1  UNL1        0.0206
     22 C         139.3101  141.7211  165.6301 C.ar    1  UNL1        0.0116
     23 N         137.8932  138.2301  166.8773 N.1     1  UNL1       -0.1908
     24 C         138.1284  139.4411  166.0239 C.1     1  UNL1        0.1004
     25 C         144.2705  139.2939  164.2188 C.3     1  UNL1        0.0761
     26 C         143.7266  138.9661  165.5779 C.3     1  UNL1        0.0646
     27 C         142.5925  139.7674  166.1451 C.3     1  UNL1        0.2068
     28 O         141.9705  139.3670  167.4500 O.3     1  UNL1       -0.4754
     29 C         141.3227  140.4024  168.3210 C.ar    1  UNL1        0.1387
     30 C         140.0925  140.0580  169.1071 C.ar    1  UNL1        0.0392
     31 C         139.4449  141.0933  169.9781 C.ar    1  UNL1        0.0327
     32 C         140.0275  142.4730  170.0630 C.ar    1  UNL1        0.1403
     33 F         139.3797  143.5083  170.9340 F       1  UNL1       -0.2042
     34 C         141.2577  142.8173  169.2769 C.ar    1  UNL1        0.0327
     35 C         141.9053  141.7820  168.4059 C.ar    1  UNL1        0.0392
@<TRIPOS>BOND
     1    23    24    3
     2    24    17    1
     3    17    18   ar
     4    18    19   ar
     5    19    20   ar
     6    20    14    1
     7    14    15    2
     8    14    16    2
     9    14    12    1
    10    12    11    1
    11    11    10    1
    12    10     1    1
    13     1     2    1
    14     2     3    1
    15     3     4    1
    16     4     5    1
    17     5    25    1
    18    25    26    1
    19    26    27    1
    20    27    28    1
    21    28    29    1
    22    29    30   ar
    23    30    31   ar
    24    31    32   ar
    25    32    33    1
    26    32    34   ar
    27    34    35   ar
    28     5     6    1
    29     6     7    1
    30     7     8    1
    31     7     9    1
    32    20    21   ar
    33    21    22   ar
    34    22    17   ar
    35     8     1    1
    36     9     3    1
    37    35    29   ar
    38    12    13    1
@<TRIPOS>MOLECULE
*****
 35 38 0 0 0
SMALL
GASTEIGER

@<TRIPOS>ATOM
      1 N         142.2986  144.1397  160.3770 N.3     1  UNL1       -0.2673
      2 C         142.5507  144.5916  161.7848 C.3     1  UNL1        0.1035
      3 C         143.3687  143.7407  162.7105 C.3     1  UNL1        0.1470
      4 C         144.1867  142.8899  163.6362 C.3     1  UNL1        0.1035
      5 N         144.7526  141.5871  163.1540 N.3     1  UNL1       -0.2684
      6 C         144.5005  141.1352  161.7460 C.3     1  UNL1        0.1035
      7 C         143.6825  141.9860  160.8204 C.3     1  UNL1        0.1470
      8 C         142.8645  142.8369  159.8947 C.3     1  UNL1        0.1035
      9 O         143.9346  142.4380  162.2283 O.3     1  UNL1       -0.3530
     10 C         141.4806  144.9905  159.4512 C.3     1  UNL1        0.0913
     11 C         139.9833  144.9687  159.5389 C.3     1  UNL1        0.1087
     12 N         139.2555  143.6593  159.6160 N.3     1  UNL1       -0.1780
     13 H         138.3009  143.8341  159.3020 H       1  UNL1        0.1488
     14 S         139.1548  142.9332  160.9246 S.O2    1  UNL1        0.0603
     15 O         139.5989  141.6662  160.2557 O.2     1  UNL1       -0.1530
     16 O         138.7106  144.2002  161.5935 O.2     1  UNL1       -0.1530
     17 C         138.8524  140.7546  164.8505 C.ar    1  UNL1        0.0685
     18 C         140.1378  141.4220  164.4601 C.ar    1  UNL1        0.0116
     19 C         140.2386  142.1482  163.1515 C.ar    1  UNL1        0.0206
     20 C         139.0540  142.2070  162.2332 C.ar    1  UNL1        0.1220
     21 C         137.7686  141.5396  162.6236 C.ar    1  UNL1        0.0206
     22 C         137.6678  140.8135  163.9322 C.ar    1  UNL1        0.0116
     23 N         138.6509  139.3022  167.4677 N.1     1  UNL1       -0.1908
     24 C         138.7516  140.0285  166.1591 C.1     1  UNL1        0.1004
     25 C         145.5706  140.7362  164.0797 C.3     1  UNL1        0.0761
     26 C         145.0587  139.3950  164.5145 C.3     1  UNL1        0.0646
     27 C         143.7099  139.2805  165.1608 C.3     1  UNL1        0.2068
     28 O         142.9021  138.0278  164.9935 O.3     1  UNL1       -0.4754
     29 C         141.7150  138.0177  164.0766 C.ar    1  UNL1        0.1387
     30 C         140.4321  137.3777  164.5176 C.ar    1  UNL1        0.0392
     31 C         139.2451  137.3676  163.6006 C.ar    1  UNL1        0.0327
     32 C         139.3409  137.9975  162.2427 C.ar    1  UNL1        0.1403
     33 F         138.1538  137.9874  161.3257 F       1  UNL1       -0.2042
     34 C         140.6238  138.6375  161.8017 C.ar    1  UNL1        0.0327
     35 C         141.8109  138.6476  162.7186 C.ar    1  UNL1        0.0392
@<TRIPOS>BOND
     1    23    24    3
     2    24    17    1
     3    17    18   ar
     4    18    19   ar
     5    19    20   ar
     6    20    14    1
     7    14    15    2
     8    14    16    2
     9    14    12    1
    10    12    11    1
    11    11    10    1
    12    10     1    1
    13     1     2    1
    14     2     3    1
    15     3     4    1
    16     4     5    1
    17     5    25    1
    18    25    26    1
    19    26    27    1
    20    27    28    1
    21    28    29    1
    22    29    30   ar
    23    30    31   ar
    24    31    32   ar
    25    32    33    1
    26    32    34   ar
    27    34    35   ar
    28     5     6    1
    29     6     7    1
    30     7     8    1
    31     7     9    1
    32    20    21   ar
    33    21    22   ar
    34    22    17   ar
    35     8     1    1
    36     9     3    1
    37    35    29   ar
    38    12    13    1
@<TRIPOS>MOLECULE
*****
 35 38 0 0 0
SMALL
GASTEIGER

@<TRIPOS>ATOM
      1 N         139.4923  137.5288  164.4220 N.3     1  UNL1       -0.2673
      2 C         140.9818  137.4826  164.5931 C.3     1  UNL1        0.1035
      3 C         141.8798  137.7515  163.4221 C.3     1  UNL1        0.1470
      4 C         142.7780  138.0204  162.2512 C.3     1  UNL1        0.1035
      5 N         142.1866  138.3354  160.9092 N.3     1  UNL1       -0.2684
      6 C         140.6970  138.3816  160.7381 C.3     1  UNL1        0.1035
      7 C         139.7990  138.1127  161.9091 C.3     1  UNL1        0.1470
      8 C         138.9009  137.8439  163.0800 C.3     1  UNL1        0.1035
      9 O         141.2884  138.0666  162.0801 O.3     1  UNL1       -0.3530
     10 C         138.5941  137.2600  165.5930 C.3     1  UNL1        0.0913
     11 C         138.1095  138.3968  166.4431 C.3     1  UNL1        0.1087
     12 N         139.0323  139.5322  166.7741 N.3     1  UNL1       -0.1780
     13 H         138.7586  139.8752  167.6949 H       1  UNL1        0.1488
     14 S         139.1046  140.7276  165.8708 S.O2    1  UNL1        0.0603
     15 O         137.7771  140.3596  165.2774 O.2     1  UNL1       -0.1530
     16 O         140.4322  141.0955  166.4642 O.2     1  UNL1       -0.1530
     17 C         139.3219  144.3136  163.1610 C.ar    1  UNL1        0.0685
     18 C         138.0634  143.5002  163.2292 C.ar    1  UNL1        0.0116
     19 C         137.9910  142.3048  164.1325 C.ar    1  UNL1        0.0206
     20 C         139.1770  141.9229  164.9676 C.ar    1  UNL1        0.1220
     21 C         140.4355  142.7363  164.8993 C.ar    1  UNL1        0.0206
     22 C         140.5079  143.9316  163.9961 C.ar    1  UNL1        0.0116
     23 N         139.4666  146.7043  161.3544 N.1     1  UNL1       -0.1908
     24 C         139.3942  145.5089  162.2578 C.1     1  UNL1        0.1004
     25 C         143.0846  138.6043  159.7382 C.3     1  UNL1        0.0761
     26 C         143.0232  139.9274  159.0341 C.3     1  UNL1        0.0646
     27 C         143.0954  141.2010  159.8232 C.3     1  UNL1        0.2068
     28 O         144.4143  141.6822  160.3513 O.3     1  UNL1       -0.4754
     29 C         144.5115  142.2211  161.7478 C.ar    1  UNL1        0.1387
     30 C         145.1621  141.4031  162.8237 C.ar    1  UNL1        0.0392
     31 C         145.2593  141.9420  164.2202 C.ar    1  UNL1        0.0327
     32 C         144.7058  143.2988  164.5407 C.ar    1  UNL1        0.1403
     33 F         144.8030  143.8376  165.9373 F       1  UNL1       -0.2042
     34 C         144.0552  144.1167  163.4648 C.ar    1  UNL1        0.0327
     35 C         143.9580  143.5779  162.0684 C.ar    1  UNL1        0.0392
@<TRIPOS>BOND
     1    23    24    3
     2    24    17    1
     3    17    18   ar
     4    18    19   ar
     5    19    20   ar
     6    20    14    1
     7    14    15    2
     8    14    16    2
     9    14    12    1
    10    12    11    1
    11    11    10    1
    12    10     1    1
    13     1     2    1
    14     2     3    1
    15     3     4    1
    16     4     5    1
    17     5    25    1
    18    25    26    1
    19    26    27    1
    20    27    28    1
    21    28    29    1
    22    29    30   ar
    23    30    31   ar
    24    31    32   ar
    25    32    33    1
    26    32    34   ar
    27    34    35   ar
    28     5     6    1
    29     6     7    1
    30     7     8    1
    31     7     9    1
    32    20    21   ar
    33    21    22   ar
    34    22    17   ar
    35     8     1    1
    36     9     3    1
    37    35    29   ar
    38    12    13    1
@<TRIPOS>MOLECULE
*****
 35 38 0 0 0
SMALL
GASTEIGER

@<TRIPOS>ATOM
      1 N         143.2328  138.7462  165.2996 N.3     1  UNL1       -0.2673
      2 C         142.1661  137.9345  164.6264 C.3     1  UNL1        0.1035
      3 C         142.0984  137.8797  163.1290 C.3     1  UNL1        0.1470
      4 C         142.0305  137.8248  161.6315 C.3     1  UNL1        0.1035
      5 N         143.0294  138.5817  160.8073 N.3     1  UNL1       -0.2684
      6 C         144.0962  139.3934  161.4806 C.3     1  UNL1        0.1035
      7 C         144.1640  139.4482  162.9780 C.3     1  UNL1        0.1470
      8 C         144.2317  139.5030  164.4754 C.3     1  UNL1        0.1035
      9 O         143.0973  138.6365  162.3048 O.3     1  UNL1       -0.3530
     10 C         143.3006  138.8010  166.7972 C.3     1  UNL1        0.0913
     11 C         142.2504  139.5436  167.5688 C.3     1  UNL1        0.1087
     12 N         142.3674  141.0270  167.7586 N.3     1  UNL1       -0.1780
     13 H         141.8512  141.2568  168.6078 H       1  UNL1        0.1488
     14 S         141.8810  141.9605  166.6901 S.O2    1  UNL1        0.0603
     15 O         143.2916  142.4004  166.4322 O.2     1  UNL1       -0.1530
     16 O         140.4703  141.5207  166.9480 O.2     1  UNL1       -0.1530
     17 C         140.4215  144.7612  163.4845 C.ar    1  UNL1        0.0685
     18 C         141.7907  144.1566  163.3856 C.ar    1  UNL1        0.0116
     19 C         142.2772  143.2230  164.4542 C.ar    1  UNL1        0.0206
     20 C         141.3945  142.8941  165.6216 C.ar    1  UNL1        0.1220
     21 C         140.0253  143.4988  165.7203 C.ar    1  UNL1        0.0206
     22 C         139.5389  144.4323  164.6518 C.ar    1  UNL1        0.0116
     23 N         139.4486  146.6283  161.3473 N.1     1  UNL1       -0.1908
     24 C         139.9351  145.6948  162.4159 C.1     1  UNL1        0.1004
     25 C         142.9617  138.5269  159.3098 C.3     1  UNL1        0.0761
     26 C         142.8842  139.7970  158.5155 C.3     1  UNL1        0.0646
     27 C         141.7277  140.7326  158.7079 C.3     1  UNL1        0.2068
     28 O         141.7149  141.6801  159.8707 O.3     1  UNL1       -0.4754
     29 C         140.5100  141.7590  160.7607 C.ar    1  UNL1        0.1387
     30 C         140.4768  140.9898  162.0480 C.ar    1  UNL1        0.0392
     31 C         139.2719  141.0688  162.9379 C.ar    1  UNL1        0.0327
     32 C         138.1003  141.9169  162.5405 C.ar    1  UNL1        0.1403
     33 F         136.8954  141.9958  163.4306 F       1  UNL1       -0.2042
     34 C         138.1335  142.6860  161.2532 C.ar    1  UNL1        0.0327
     35 C         139.3383  142.6071  160.3633 C.ar    1  UNL1        0.0392
@<TRIPOS>BOND
     1    23    24    3
     2    24    17    1
     3    17    18   ar
     4    18    19   ar
     5    19    20   ar
     6    20    14    1
     7    14    15    2
     8    14    16    2
     9    14    12    1
    10    12    11    1
    11    11    10    1
    12    10     1    1
    13     1     2    1
    14     2     3    1
    15     3     4    1
    16     4     5    1
    17     5    25    1
    18    25    26    1
    19    26    27    1
    20    27    28    1
    21    28    29    1
    22    29    30   ar
    23    30    31   ar
    24    31    32   ar
    25    32    33    1
    26    32    34   ar
    27    34    35   ar
    28     5     6    1
    29     6     7    1
    30     7     8    1
    31     7     9    1
    32    20    21   ar
    33    21    22   ar
    34    22    17   ar
    35     8     1    1
    36     9     3    1
    37    35    29   ar
    38    12    13    1
