@<TRIPOS>MOLECULE
*****
 41 45 0 0 0
SMALL
GASTEIGER

@<TRIPOS>ATOM
      1 C         140.9153  143.5247  160.6541 C.ar    1  UNL1        0.0655
      2 C         139.8772  142.7870  161.4467 C.ar    1  UNL1        0.0337
      3 C         138.9184  141.8656  160.7526 C.ar    1  UNL1        0.0862
      4 C         138.9975  141.6820  159.2661 C.ar    1  UNL1        0.1534
      5 C         140.0356  142.4197  158.4735 C.ar    1  UNL1        0.0539
      6 C         140.9944  143.3411  159.1675 C.ar    1  UNL1        0.0647
      7 C         142.9973  143.8816  162.1667 C.2     1  UNL1        0.2497
      8 O         143.2229  142.8248  162.3344 O.2     1  UNL1       -0.2698
      9 N         141.8742  144.4461  161.3482 N.am    1  UNL1       -0.2794
     10 H         141.7664  145.4212  161.2665 H       1  UNL1        0.1552
     11 C         143.8029  145.0789  164.3272 C.2     1  UNL1        0.0048
     12 C         143.9561  144.8029  162.8608 C.2     1  UNL1        0.0580
     13 N         137.8803  141.1279  161.5452 N.pl3   1  UNL1       -0.2801
     14 H         136.9252  141.3227  161.4072 H       1  UNL1        0.1552
     15 C         138.2975  140.0933  162.5481 C.ar    1  UNL1        0.2207
     16 N         138.2561  138.6382  162.1860 N.ar    1  UNL1       -0.2120
     17 C         138.6733  137.6038  163.1889 C.ar    1  UNL1        0.1034
     18 C         139.1318  138.0243  164.5538 C.ar    1  UNL1        0.0400
     19 C         139.1732  139.4793  164.9158 C.ar    1  UNL1        0.0872
     20 N         138.7560  140.5138  163.9130 N.ar    1  UNL1       -0.2135
     21 C         139.6318  139.8999  166.2807 C.ar    1  UNL1        0.0364
     22 C         138.9452  139.5862  167.5770 C.ar    1  UNL1        0.0774
     23 N         139.7465  140.2003  168.6863 N.ar    1  UNL1       -0.3263
     24 C         140.9283  140.8936  168.0756 C.ar    1  UNL1        0.0559
     25 C         142.0598  141.6700  168.6813 C.ar    1  UNL1       -0.0063
     26 C         143.1204  142.2606  167.8003 C.ar    1  UNL1       -0.0028
     27 C         143.0495  142.0749  166.3136 C.ar    1  UNL1       -0.0002
     28 C         141.9179  141.2985  165.7079 C.ar    1  UNL1        0.0015
     29 C         140.8574  140.7079  166.5889 C.ar    1  UNL1        0.0184
     30 C         141.8778  141.6958  170.1768 C.3     1  UNL1        0.0298
     31 C         140.7504  141.0502  170.9269 C.3     1  UNL1        0.0292
     32 C         139.6848  140.3025  170.1816 C.3     1  UNL1        0.1064
     33 O         138.0387  140.7606  158.5720 O.3     1  UNL1       -0.4701
     34 C         137.4204  141.1662  157.2670 C.3     1  UNL1        0.2525
     35 N         142.0325  144.0788  158.3749 N.pl3   1  UNL1       -0.3033
     36 C         143.0324  143.7245  158.1091 C.3     1  UNL1        0.1123
     37 C         141.7419  145.4561  157.8566 C.3     1  UNL1        0.1082
     38 C         140.3249  145.8795  157.6058 C.3     1  UNL1        0.0938
     39 N         139.9762  146.6271  156.3531 N.3     1  UNL1       -0.2688
     40 C         138.9589  147.7287  156.3956 C.3     1  UNL1        0.0897
     41 C         140.6447  146.2733  155.0577 C.3     1  UNL1        0.0897
@<TRIPOS>BOND
     1    11    12    2
     2    12     7    1
     3     7     8    2
     4     7     9   am
     5     9     1    1
     6     1     2   ar
     7     2     3   ar
     8     3    13    1
     9    13    15    1
    10    15    16   ar
    11    16    17   ar
    12    17    18   ar
    13    18    19   ar
    14    19    21    1
    15    21    22   ar
    16    22    23   ar
    17    23    24   ar
    18    24    25   ar
    19    25    26   ar
    20    26    27   ar
    21    27    28   ar
    22    28    29   ar
    23    25    30    1
    24    30    31    1
    25    31    32    1
    26    19    20   ar
    27     3     4   ar
    28     4    33    1
    29    33    34    1
    30     4     5   ar
    31     5     6   ar
    32     6    35    1
    33    35    36    1
    34    35    37    1
    35    37    38    1
    36    38    39    1
    37    39    40    1
    38    39    41    1
    39     6     1   ar
    40    20    15   ar
    41    29    21   ar
    42    32    23    1
    43    29    24   ar
    44     9    10    1
    45    13    14    1
@<TRIPOS>MOLECULE
*****
 41 45 0 0 0
SMALL
GASTEIGER

@<TRIPOS>ATOM
      1 C         143.3018  139.8533  158.2157 C.ar    1  UNL1        0.0655
      2 C         144.0723  139.7488  159.4985 C.ar    1  UNL1        0.0337
      3 C         143.5360  138.9233  160.6303 C.ar    1  UNL1        0.0862
      4 C         142.2294  138.2023  160.4795 C.ar    1  UNL1        0.1534
      5 C         141.4589  138.3068  159.1967 C.ar    1  UNL1        0.0539
      6 C         141.9951  139.1323  158.0649 C.ar    1  UNL1        0.0647
      7 C         144.7574  140.0590  156.0735 C.2     1  UNL1        0.2497
      8 O         145.1093  139.0239  156.0516 O.2     1  UNL1       -0.2698
      9 N         143.8380  140.6787  157.0839 N.am    1  UNL1       -0.2794
     10 H         143.5866  141.6272  157.0041 H       1  UNL1        0.1552
     11 C         146.4214  141.8438  155.1817 C.2     1  UNL1        0.0048
     12 C         145.2936  140.8845  154.9417 C.2     1  UNL1        0.0580
     13 N         144.3065  138.8188  161.9131 N.pl3   1  UNL1       -0.2801
     14 H         144.8047  137.9959  162.1224 H       1  UNL1        0.1552
     15 C         144.3179  139.9682  162.8769 C.ar    1  UNL1        0.2207
     16 N         145.1923  141.1584  162.6145 N.ar    1  UNL1       -0.2120
     17 C         145.2036  142.3077  163.5784 C.ar    1  UNL1        0.1034
     18 C         144.3406  142.2668  164.8045 C.ar    1  UNL1        0.0400
     19 C         143.4662  141.0765  165.0670 C.ar    1  UNL1        0.0872
     20 N         143.4549  139.9273  164.1031 N.ar    1  UNL1       -0.2135
     21 C         142.6032  141.0356  166.2931 C.ar    1  UNL1        0.0364
     22 C         142.9348  141.6404  167.6252 C.ar    1  UNL1        0.0774
     23 N         141.7936  141.3613  168.5579 N.ar    1  UNL1       -0.3263
     24 C         140.7568  140.5841  167.8022 C.ar    1  UNL1        0.0559
     25 C         139.4217  140.0336  168.2078 C.ar    1  UNL1       -0.0063
     26 C         138.5870  139.2820  167.2137 C.ar    1  UNL1       -0.0028
     27 C         139.0874  139.0807  165.8141 C.ar    1  UNL1       -0.0002
     28 C         140.4225  139.6311  165.4085 C.ar    1  UNL1        0.0015
     29 C         141.2572  140.3828  166.4025 C.ar    1  UNL1        0.0184
     30 C         139.1784  140.3814  169.6535 C.3     1  UNL1        0.0298
     31 C         140.1193  141.1501  170.5333 C.3     1  UNL1        0.0292
     32 C         141.4269  141.6400  169.9854 C.3     1  UNL1        0.1064
     33 O         141.6932  137.3769  161.6113 O.3     1  UNL1       -0.4701
     34 C         140.4553  137.8135  162.3372 C.3     1  UNL1        0.2525
     35 N         141.2246  139.2368  156.7821 N.pl3   1  UNL1       -0.3033
     36 C         140.4773  139.9919  156.5229 C.3     1  UNL1        0.1123
     37 C         141.4480  138.2341  155.6891 C.3     1  UNL1        0.1082
     38 C         140.9908  136.8165  155.8668 C.3     1  UNL1        0.0938
     39 N         141.9789  135.6922  155.7696 N.3     1  UNL1       -0.2688
     40 C         143.4291  135.9408  156.0614 C.3     1  UNL1        0.0897
     41 C         141.5168  134.3191  155.3807 C.3     1  UNL1        0.0897
@<TRIPOS>BOND
     1    11    12    2
     2    12     7    1
     3     7     8    2
     4     7     9   am
     5     9     1    1
     6     1     2   ar
     7     2     3   ar
     8     3    13    1
     9    13    15    1
    10    15    16   ar
    11    16    17   ar
    12    17    18   ar
    13    18    19   ar
    14    19    21    1
    15    21    22   ar
    16    22    23   ar
    17    23    24   ar
    18    24    25   ar
    19    25    26   ar
    20    26    27   ar
    21    27    28   ar
    22    28    29   ar
    23    25    30    1
    24    30    31    1
    25    31    32    1
    26    19    20   ar
    27     3     4   ar
    28     4    33    1
    29    33    34    1
    30     4     5   ar
    31     5     6   ar
    32     6    35    1
    33    35    36    1
    34    35    37    1
    35    37    38    1
    36    38    39    1
    37    39    40    1
    38    39    41    1
    39     6     1   ar
    40    20    15   ar
    41    29    21   ar
    42    32    23    1
    43    29    24   ar
    44     9    10    1
    45    13    14    1
@<TRIPOS>MOLECULE
*****
 41 45 0 0 0
SMALL
GASTEIGER

@<TRIPOS>ATOM
      1 C         139.9967  141.7696  159.8783 C.ar    1  UNL1        0.0655
      2 C         140.9370  142.4413  160.8346 C.ar    1  UNL1        0.0337
      3 C         141.5725  143.7494  160.4673 C.ar    1  UNL1        0.0862
      4 C         141.2677  144.3859  159.1438 C.ar    1  UNL1        0.1534
      5 C         140.3273  143.7143  158.1875 C.ar    1  UNL1        0.0539
      6 C         139.6918  142.4061  158.5547 C.ar    1  UNL1        0.0647
      7 C         138.1060  140.4418  161.0667 C.2     1  UNL1        0.2497
      8 O         137.5607  141.3059  161.4560 O.2     1  UNL1       -0.2698
      9 N         139.3612  140.4614  160.2456 N.am    1  UNL1       -0.2794
     10 H         139.7679  139.6158  159.9477 H       1  UNL1        0.1552
     11 C         138.3266  137.9755  161.8532 C.2     1  UNL1        0.0048
     12 C         137.4705  139.1336  161.4340 C.2     1  UNL1        0.0580
     13 N         142.5129  144.4211  161.4237 N.pl3   1  UNL1       -0.2801
     14 H         142.6930  145.3854  161.3413 H       1  UNL1        0.1552
     15 C         143.1789  143.6233  162.5055 C.ar    1  UNL1        0.2207
     16 N         144.6265  143.2510  162.3797 N.ar    1  UNL1       -0.2120
     17 C         145.2924  142.4533  163.4615 C.ar    1  UNL1        0.1034
     18 C         144.5108  142.0280  164.6690 C.ar    1  UNL1        0.0400
     19 C         143.0632  142.4003  164.7948 C.ar    1  UNL1        0.0872
     20 N         142.3973  143.1980  163.7130 N.ar    1  UNL1       -0.2135
     21 C         142.2815  141.9750  166.0023 C.ar    1  UNL1        0.0364
     22 C         142.5675  142.3685  167.4213 C.ar    1  UNL1        0.0774
     23 N         141.5394  141.7182  168.2988 N.ar    1  UNL1       -0.3263
     24 C         140.6180  140.9228  167.4221 C.ar    1  UNL1        0.0559
     25 C         139.4206  140.0745  167.7329 C.ar    1  UNL1       -0.0063
     26 C         138.6819  139.3849  166.6245 C.ar    1  UNL1       -0.0028
     27 C         139.1405  139.5437  165.2052 C.ar    1  UNL1       -0.0002
     28 C         140.3379  140.3920  164.8944 C.ar    1  UNL1        0.0015
     29 C         141.0767  141.0815  166.0028 C.ar    1  UNL1        0.0184
     30 C         139.1915  140.0949  169.2220 C.3     1  UNL1        0.0298
     31 C         140.0262  140.8415  170.2201 C.3     1  UNL1        0.0292
     32 C         141.2001  141.6531  169.7584 C.3     1  UNL1        0.1064
     33 O         141.9032  145.6941  158.7765 O.3     1  UNL1       -0.4701
     34 C         142.1627  146.0237  157.3364 C.3     1  UNL1        0.2525
     35 N         138.7514  141.7345  157.5983 N.pl3   1  UNL1       -0.3033
     36 C         137.6969  141.9735  157.4352 C.3     1  UNL1        0.1123
     37 C         139.2361  140.6049  156.7386 C.3     1  UNL1        0.1082
     38 C         138.2885  139.9146  155.8029 C.3     1  UNL1        0.0938
     39 N         138.4604  138.4549  155.5036 N.3     1  UNL1       -0.2688
     40 C         139.4853  137.6521  156.2487 C.3     1  UNL1        0.0897
     41 C         137.6073  137.7978  154.4593 C.3     1  UNL1        0.0897
@<TRIPOS>BOND
     1    11    12    2
     2    12     7    1
     3     7     8    2
     4     7     9   am
     5     9     1    1
     6     1     2   ar
     7     2     3   ar
     8     3    13    1
     9    13    15    1
    10    15    16   ar
    11    16    17   ar
    12    17    18   ar
    13    18    19   ar
    14    19    21    1
    15    21    22   ar
    16    22    23   ar
    17    23    24   ar
    18    24    25   ar
    19    25    26   ar
    20    26    27   ar
    21    27    28   ar
    22    28    29   ar
    23    25    30    1
    24    30    31    1
    25    31    32    1
    26    19    20   ar
    27     3     4   ar
    28     4    33    1
    29    33    34    1
    30     4     5   ar
    31     5     6   ar
    32     6    35    1
    33    35    36    1
    34    35    37    1
    35    37    38    1
    36    38    39    1
    37    39    40    1
    38    39    41    1
    39     6     1   ar
    40    20    15   ar
    41    29    21   ar
    42    32    23    1
    43    29    24   ar
    44     9    10    1
    45    13    14    1
@<TRIPOS>MOLECULE
*****
 41 45 0 0 0
SMALL
GASTEIGER

@<TRIPOS>ATOM
      1 C         138.0065  140.4723  160.9217 C.ar    1  UNL1        0.0655
      2 C         137.8640  139.9648  159.5173 C.ar    1  UNL1        0.0337
      3 C         138.1048  140.8866  158.3587 C.ar    1  UNL1        0.0862
      4 C         138.4881  142.3158  158.6044 C.ar    1  UNL1        0.1534
      5 C         138.6306  142.8232  160.0087 C.ar    1  UNL1        0.0539
      6 C         138.3899  141.9015  161.1673 C.ar    1  UNL1        0.0647
      7 C         138.8408  138.6008  162.5190 C.2     1  UNL1        0.2497
      8 O         139.8355  138.4846  162.0801 O.2     1  UNL1       -0.2698
      9 N         137.7658  139.5505  162.0802 N.am    1  UNL1       -0.2794
     10 H         136.9022  139.5688  162.5527 H       1  UNL1        0.1552
     11 C         139.2313  137.9655  165.0077 C.2     1  UNL1        0.0048
     12 C         138.6000  137.6790  163.6776 C.2     1  UNL1        0.0580
     13 N         137.9622  140.3792  156.9544 N.pl3   1  UNL1       -0.2801
     14 H         138.6868  139.8531  156.5451 H       1  UNL1        0.1552
     15 C         136.7156  140.6733  156.1735 C.ar    1  UNL1        0.2207
     16 N         136.8062  141.3848  154.8561 N.ar    1  UNL1       -0.2120
     17 C         135.5597  141.6789  154.0753 C.ar    1  UNL1        0.1034
     18 C         134.2226  141.2615  154.6119 C.ar    1  UNL1        0.0400
     19 C         134.1320  140.5500  155.9294 C.ar    1  UNL1        0.0872
     20 N         135.3785  140.2559  156.7101 N.ar    1  UNL1       -0.2135
     21 C         132.7949  140.1326  156.4659 C.ar    1  UNL1        0.0364
     22 C         132.5498  139.0602  157.4856 C.ar    1  UNL1        0.0774
     23 N         131.0715  138.9792  157.7270 N.ar    1  UNL1       -0.3263
     24 C         130.4031  140.0016  156.8563 C.ar    1  UNL1        0.0559
     25 C         128.9621  140.3755  156.6726 C.ar    1  UNL1       -0.0063
     26 C         128.5862  141.4623  155.7095 C.ar    1  UNL1       -0.0028
     27 C         129.6513  142.1752  154.9302 C.ar    1  UNL1       -0.0002
     28 C         131.0923  141.8012  155.1140 C.ar    1  UNL1        0.0015
     29 C         131.4682  140.7145  156.0770 C.ar    1  UNL1        0.0184
     30 C         128.1222  139.5058  157.5717 C.3     1  UNL1        0.0298
     31 C         128.6472  138.4453  158.4936 C.3     1  UNL1        0.0292
     32 C         130.1219  138.1821  158.5712 C.3     1  UNL1        0.1064
     33 O         138.7288  143.2376  157.4458 O.3     1  UNL1       -0.4701
     34 C         139.7325  144.3459  157.5652 C.3     1  UNL1        0.2525
     35 N         138.5324  142.4090  162.5717 N.pl3   1  UNL1       -0.3033
     36 C         137.8137  143.0173  163.1278 C.3     1  UNL1        0.1123
     37 C         139.7658  142.0892  163.3632 C.3     1  UNL1        0.1082
     38 C         141.1091  142.5451  162.8757 C.3     1  UNL1        0.0938
     39 N         141.3159  143.9761  162.4765 N.3     1  UNL1       -0.2688
     40 C         141.8180  144.3063  161.1022 C.3     1  UNL1        0.0897
     41 C         141.0207  145.0769  163.4517 C.3     1  UNL1        0.0897
@<TRIPOS>BOND
     1    11    12    2
     2    12     7    1
     3     7     8    2
     4     7     9   am
     5     9     1    1
     6     1     2   ar
     7     2     3   ar
     8     3    13    1
     9    13    15    1
    10    15    16   ar
    11    16    17   ar
    12    17    18   ar
    13    18    19   ar
    14    19    21    1
    15    21    22   ar
    16    22    23   ar
    17    23    24   ar
    18    24    25   ar
    19    25    26   ar
    20    26    27   ar
    21    27    28   ar
    22    28    29   ar
    23    25    30    1
    24    30    31    1
    25    31    32    1
    26    19    20   ar
    27     3     4   ar
    28     4    33    1
    29    33    34    1
    30     4     5   ar
    31     5     6   ar
    32     6    35    1
    33    35    36    1
    34    35    37    1
    35    37    38    1
    36    38    39    1
    37    39    40    1
    38    39    41    1
    39     6     1   ar
    40    20    15   ar
    41    29    21   ar
    42    32    23    1
    43    29    24   ar
    44     9    10    1
    45    13    14    1
@<TRIPOS>MOLECULE
*****
 41 45 0 0 0
SMALL
GASTEIGER

@<TRIPOS>ATOM
      1 C         142.5157  142.7898  158.6340 C.ar    1  UNL1        0.0655
      2 C         142.1371  143.8428  159.6329 C.ar    1  UNL1        0.0337
      3 C         142.7918  143.8665  160.9823 C.ar    1  UNL1        0.0862
      4 C         143.8250  142.8372  161.3329 C.ar    1  UNL1        0.1534
      5 C         144.2036  141.7842  160.3340 C.ar    1  UNL1        0.0539
      6 C         143.5489  141.7605  158.9846 C.ar    1  UNL1        0.0647
      7 C         140.5622  142.0405  157.0938 C.2     1  UNL1        0.2497
      8 O         139.9958  141.4943  157.8531 O.2     1  UNL1       -0.2698
      9 N         141.8611  142.7661  157.2846 N.am    1  UNL1       -0.2794
     10 H         142.2840  143.2267  156.5242 H       1  UNL1        0.1552
     11 C         140.3963  142.9279  154.6576 C.2     1  UNL1        0.0048
     12 C         139.9076  142.0168  155.7444 C.2     1  UNL1        0.0580
     13 N         142.4132  144.9195  161.9812 N.pl3   1  UNL1       -0.2801
     14 H         142.8455  145.8036  161.9523 H       1  UNL1        0.1552
     15 C         141.3759  144.6256  163.0242 C.ar    1  UNL1        0.2207
     16 N         140.0064  145.2269  162.9103 N.ar    1  UNL1       -0.2120
     17 C         138.9692  144.9330  163.9533 C.ar    1  UNL1        0.1034
     18 C         139.3014  144.0378  165.1101 C.ar    1  UNL1        0.0400
     19 C         140.6709  143.4365  165.2240 C.ar    1  UNL1        0.0872
     20 N         141.7081  143.7305  164.1810 N.ar    1  UNL1       -0.2135
     21 C         141.0032  142.5414  166.3808 C.ar    1  UNL1        0.0364
     22 C         140.5976  142.7585  167.8086 C.ar    1  UNL1        0.0774
     23 N         141.1431  141.6232  168.6231 N.ar    1  UNL1       -0.3263
     24 C         141.8859  140.7045  167.6988 C.ar    1  UNL1        0.0559
     25 C         142.6298  139.4245  167.9401 C.ar    1  UNL1       -0.0063
     26 C         143.2872  138.7119  166.7955 C.ar    1  UNL1       -0.0028
     27 C         143.2007  139.2794  165.4097 C.ar    1  UNL1       -0.0002
     28 C         142.4568  140.5594  165.1685 C.ar    1  UNL1        0.0015
     29 C         141.7994  141.2719  166.3130 C.ar    1  UNL1        0.0184
     30 C         142.5539  139.0947  169.4083 C.3     1  UNL1        0.0298
     31 C         141.8499  139.9149  170.4485 C.3     1  UNL1        0.0292
     32 C         141.1445  141.1791  170.0559 C.3     1  UNL1        0.1064
     33 O         144.4796  142.8609  162.6823 O.3     1  UNL1       -0.4701
     34 C         145.5534  141.8670  163.0125 C.3     1  UNL1        0.2525
     35 N         143.9276  140.7074  157.9857 N.pl3   1  UNL1       -0.3033
     36 C         143.4550  139.7309  157.8477 C.3     1  UNL1        0.1123
     37 C         145.0669  140.9459  157.0397 C.3     1  UNL1        0.1082
     38 C         145.6182  142.3298  156.8633 C.3     1  UNL1        0.0938
     39 N         147.0991  142.5602  156.9223 N.3     1  UNL1       -0.2688
     40 C         147.9836  142.0384  155.8289 C.3     1  UNL1        0.0897
     41 C         147.6958  143.3126  158.0747 C.3     1  UNL1        0.0897
@<TRIPOS>BOND
     1    11    12    2
     2    12     7    1
     3     7     8    2
     4     7     9   am
     5     9     1    1
     6     1     2   ar
     7     2     3   ar
     8     3    13    1
     9    13    15    1
    10    15    16   ar
    11    16    17   ar
    12    17    18   ar
    13    18    19   ar
    14    19    21    1
    15    21    22   ar
    16    22    23   ar
    17    23    24   ar
    18    24    25   ar
    19    25    26   ar
    20    26    27   ar
    21    27    28   ar
    22    28    29   ar
    23    25    30    1
    24    30    31    1
    25    31    32    1
    26    19    20   ar
    27     3     4   ar
    28     4    33    1
    29    33    34    1
    30     4     5   ar
    31     5     6   ar
    32     6    35    1
    33    35    36    1
    34    35    37    1
    35    37    38    1
    36    38    39    1
    37    39    40    1
    38    39    41    1
    39     6     1   ar
    40    20    15   ar
    41    29    21   ar
    42    32    23    1
    43    29    24   ar
    44     9    10    1
    45    13    14    1
@<TRIPOS>MOLECULE
*****
 41 45 0 0 0
SMALL
GASTEIGER

@<TRIPOS>ATOM
      1 C         141.9777  142.6101  158.6108 C.ar    1  UNL1        0.0655
      2 C         142.6639  143.2670  159.7716 C.ar    1  UNL1        0.0337
      3 C         141.9597  144.3377  160.5511 C.ar    1  UNL1        0.0862
      4 C         140.5692  144.7514  160.1699 C.ar    1  UNL1        0.1534
      5 C         139.8830  144.0945  159.0091 C.ar    1  UNL1        0.0539
      6 C         140.5873  143.0238  158.2295 C.ar    1  UNL1        0.0647
      7 C         143.4864  141.9012  156.6179 C.2     1  UNL1        0.2497
      8 O         143.6363  142.9013  156.2019 O.2     1  UNL1       -0.2698
      9 N         142.6820  141.5394  157.8312 N.am    1  UNL1       -0.2794
     10 H         142.6163  140.5992  158.1159 H       1  UNL1        0.1552
     11 C         145.6880  140.7453  155.8650 C.2     1  UNL1        0.0048
     12 C         144.1907  140.8306  155.8384 C.2     1  UNL1        0.0580
     13 N         142.6459  144.9947  161.7119 N.pl3   1  UNL1       -0.2801
     14 H         142.9555  145.9263  161.6377 H       1  UNL1        0.1552
     15 C         142.8604  144.2322  162.9858 C.ar    1  UNL1        0.2207
     16 N         144.0223  144.5668  163.8735 N.ar    1  UNL1       -0.2120
     17 C         144.2368  143.8043  165.1473 C.ar    1  UNL1        0.1034
     18 C         143.2894  142.7073  165.5335 C.ar    1  UNL1        0.0400
     19 C         142.1275  142.3728  164.6457 C.ar    1  UNL1        0.0872
     20 N         141.9130  143.1353  163.3719 N.ar    1  UNL1       -0.2135
     21 C         141.1801  141.2758  165.0319 C.ar    1  UNL1        0.0364
     22 C         140.0770  141.3788  166.0432 C.ar    1  UNL1        0.0774
     23 N         139.3846  140.0499  166.1108 N.ar    1  UNL1       -0.3263
     24 C         140.0598  139.1256  165.1412 C.ar    1  UNL1        0.0559
     25 C         139.8074  137.6920  164.7794 C.ar    1  UNL1       -0.0063
     26 C         140.6647  137.0160  163.7509 C.ar    1  UNL1       -0.0028
     27 C         141.7743  137.7736  163.0841 C.ar    1  UNL1       -0.0002
     28 C         142.0267  139.2073  163.4459 C.ar    1  UNL1        0.0015
     29 C         141.1694  139.8833  164.4744 C.ar    1  UNL1        0.0184
     30 C         138.6454  137.1884  165.5957 C.3     1  UNL1        0.0298
     31 C         137.8749  137.9930  166.6004 C.3     1  UNL1        0.0292
     32 C         138.2446  139.4237  166.8578 C.3     1  UNL1        0.1064
     33 O         139.8650  145.8221  160.9494 O.3     1  UNL1       -0.4701
     34 C         139.2489  145.4999  162.2786 C.3     1  UNL1        0.2525
     35 N         139.9009  142.3668  157.0687 N.pl3   1  UNL1       -0.3033
     36 C         139.7853  142.7697  156.0587 C.3     1  UNL1        0.1123
     37 C         139.2819  141.0105  157.2331 C.3     1  UNL1        0.1082
     38 C         138.6691  140.6197  158.5452 C.3     1  UNL1        0.0938
     39 N         139.5149  139.9830  159.6079 N.3     1  UNL1       -0.2688
     40 C         139.6930  140.6637  160.9326 C.3     1  UNL1        0.0897
     41 C         140.1825  138.6656  159.3458 C.3     1  UNL1        0.0897
@<TRIPOS>BOND
     1    11    12    2
     2    12     7    1
     3     7     8    2
     4     7     9   am
     5     9     1    1
     6     1     2   ar
     7     2     3   ar
     8     3    13    1
     9    13    15    1
    10    15    16   ar
    11    16    17   ar
    12    17    18   ar
    13    18    19   ar
    14    19    21    1
    15    21    22   ar
    16    22    23   ar
    17    23    24   ar
    18    24    25   ar
    19    25    26   ar
    20    26    27   ar
    21    27    28   ar
    22    28    29   ar
    23    25    30    1
    24    30    31    1
    25    31    32    1
    26    19    20   ar
    27     3     4   ar
    28     4    33    1
    29    33    34    1
    30     4     5   ar
    31     5     6   ar
    32     6    35    1
    33    35    36    1
    34    35    37    1
    35    37    38    1
    36    38    39    1
    37    39    40    1
    38    39    41    1
    39     6     1   ar
    40    20    15   ar
    41    29    21   ar
    42    32    23    1
    43    29    24   ar
    44     9    10    1
    45    13    14    1
@<TRIPOS>MOLECULE
*****
 41 45 0 0 0
SMALL
GASTEIGER

@<TRIPOS>ATOM
      1 C         141.2103  143.3984  160.4949 C.ar    1  UNL1        0.0655
      2 C         140.1212  142.7310  161.2813 C.ar    1  UNL1        0.0337
      3 C         139.1642  141.8006  160.5968 C.ar    1  UNL1        0.0862
      4 C         139.2962  141.5376  159.1260 C.ar    1  UNL1        0.1534
      5 C         140.3854  142.2050  158.3396 C.ar    1  UNL1        0.0539
      6 C         141.3424  143.1354  159.0241 C.ar    1  UNL1        0.0647
      7 C         143.1144  143.8011  162.2161 C.2     1  UNL1        0.2497
      8 O         143.2048  142.7668  162.5592 O.2     1  UNL1       -0.2698
      9 N         142.1673  144.3288  161.1794 N.am    1  UNL1       -0.2794
     10 H         142.1739  145.2858  160.9482 H       1  UNL1        0.1552
     11 C         143.8038  145.1818  164.3061 C.2     1  UNL1        0.0048
     12 C         144.0714  144.7315  162.9005 C.2     1  UNL1        0.0580
     13 N         138.0751  141.1332  161.3832 N.pl3   1  UNL1       -0.2801
     14 H         137.1339  141.3728  161.2220 H       1  UNL1        0.1552
     15 C         138.4200  140.1005  162.4151 C.ar    1  UNL1        0.2207
     16 N         138.3207  138.6420  162.0790 N.ar    1  UNL1       -0.2120
     17 C         138.6656  137.6095  163.1109 C.ar    1  UNL1        0.1034
     18 C         139.1098  138.0354  164.4789 C.ar    1  UNL1        0.0400
     19 C         139.2091  139.4939  164.8150 C.ar    1  UNL1        0.0872
     20 N         138.8642  140.5264  163.7831 N.ar    1  UNL1       -0.2135
     21 C         139.6532  139.9198  166.1829 C.ar    1  UNL1        0.0364
     22 C         138.9579  139.6037  167.4739 C.ar    1  UNL1        0.0774
     23 N         139.7456  140.2251  168.5889 N.ar    1  UNL1       -0.3263
     24 C         140.9279  140.9252  167.9870 C.ar    1  UNL1        0.0559
     25 C         142.0491  141.7102  168.6009 C.ar    1  UNL1       -0.0063
     26 C         143.1131  142.3064  167.7278 C.ar    1  UNL1       -0.0028
     27 C         143.0559  142.1177  166.2409 C.ar    1  UNL1       -0.0002
     28 C         141.9348  141.3327  165.6270 C.ar    1  UNL1        0.0015
     29 C         140.8708  140.7365  166.5001 C.ar    1  UNL1        0.0184
     30 C         141.8542  141.7373  170.0948 C.3     1  UNL1        0.0298
     31 C         140.7248  141.0855  170.8364 C.3     1  UNL1        0.0292
     32 C         139.6706  140.3294  170.0834 C.3     1  UNL1        0.1064
     33 O         138.3392  140.6072  158.4415 O.3     1  UNL1       -0.4701
     34 C         138.7869  139.8146  157.2493 C.3     1  UNL1        0.2525
     35 N         142.4315  143.8028  158.2376 N.pl3   1  UNL1       -0.3033
     36 C         142.3844  144.7777  157.7446 C.3     1  UNL1        0.1123
     37 C         143.7568  143.1219  158.0645 C.3     1  UNL1        0.1082
     38 C         143.9621  142.1565  156.9350 C.3     1  UNL1        0.0938
     39 N         145.3414  141.6643  156.6106 N.3     1  UNL1       -0.2688
     40 C         145.5217  140.3743  155.8666 C.3     1  UNL1        0.0897
     41 C         146.5404  142.4620  157.0301 C.3     1  UNL1        0.0897
@<TRIPOS>BOND
     1    11    12    2
     2    12     7    1
     3     7     8    2
     4     7     9   am
     5     9     1    1
     6     1     2   ar
     7     2     3   ar
     8     3    13    1
     9    13    15    1
    10    15    16   ar
    11    16    17   ar
    12    17    18   ar
    13    18    19   ar
    14    19    21    1
    15    21    22   ar
    16    22    23   ar
    17    23    24   ar
    18    24    25   ar
    19    25    26   ar
    20    26    27   ar
    21    27    28   ar
    22    28    29   ar
    23    25    30    1
    24    30    31    1
    25    31    32    1
    26    19    20   ar
    27     3     4   ar
    28     4    33    1
    29    33    34    1
    30     4     5   ar
    31     5     6   ar
    32     6    35    1
    33    35    36    1
    34    35    37    1
    35    37    38    1
    36    38    39    1
    37    39    40    1
    38    39    41    1
    39     6     1   ar
    40    20    15   ar
    41    29    21   ar
    42    32    23    1
    43    29    24   ar
    44     9    10    1
    45    13    14    1
@<TRIPOS>MOLECULE
*****
 41 45 0 0 0
SMALL
GASTEIGER

@<TRIPOS>ATOM
      1 C         138.7019  140.1948  158.8011 C.ar    1  UNL1        0.0655
      2 C         137.9451  140.8225  159.9339 C.ar    1  UNL1        0.0337
      3 C         137.9593  140.1832  161.2908 C.ar    1  UNL1        0.0862
      4 C         138.7303  138.9162  161.5149 C.ar    1  UNL1        0.1534
      5 C         139.4871  138.2885  160.3821 C.ar    1  UNL1        0.0539
      6 C         139.4729  138.9279  159.0253 C.ar    1  UNL1        0.0647
      7 C         137.4226  140.8554  156.6385 C.2     1  UNL1        0.2497
      8 O         136.4520  140.4421  156.9262 O.2     1  UNL1       -0.2698
      9 N         138.6877  140.8341  157.4443 N.am    1  UNL1       -0.2794
     10 H         139.5086  141.2398  157.0826 H       1  UNL1        0.1552
     11 C         136.5511  140.9225  154.1919 C.2     1  UNL1        0.0048
     12 C         137.4084  141.4947  155.2816 C.2     1  UNL1        0.0580
     13 N         137.2024  140.8109  162.4236 N.pl3   1  UNL1       -0.2801
     14 H         136.2970  140.4946  162.6457 H       1  UNL1        0.1552
     15 C         137.8252  141.9205  163.2180 C.ar    1  UNL1        0.2207
     16 N         137.6356  143.3461  162.7916 N.ar    1  UNL1       -0.2120
     17 C         138.2584  144.4556  163.5860 C.ar    1  UNL1        0.1034
     18 C         139.0707  144.1396  164.8067 C.ar    1  UNL1        0.0400
     19 C         139.2603  142.7140  165.2331 C.ar    1  UNL1        0.0872
     20 N         138.6376  141.6045  164.4387 N.ar    1  UNL1       -0.2135
     21 C         140.0727  142.3981  166.4539 C.ar    1  UNL1        0.0364
     22 C         140.1131  143.2033  167.7188 C.ar    1  UNL1        0.0774
     23 N         141.0526  142.5243  168.6707 N.ar    1  UNL1       -0.3263
     24 C         141.5929  141.2994  167.9940 C.ar    1  UNL1        0.0559
     25 C         142.5582  140.2449  168.4485 C.ar    1  UNL1       -0.0063
     26 C         142.9178  139.1126  167.5329 C.ar    1  UNL1       -0.0028
     27 C         142.3121  139.0346  166.1628 C.ar    1  UNL1       -0.0002
     28 C         141.3469  140.0890  165.7084 C.ar    1  UNL1        0.0015
     29 C         140.9873  141.2214  166.6240 C.ar    1  UNL1        0.0184
     30 C         143.0022  140.5730  169.8505 C.3     1  UNL1        0.0298
     31 C         142.5498  141.7582  170.6510 C.3     1  UNL1        0.0292
     32 C         141.5750  142.7338  170.0611 C.3     1  UNL1        0.1064
     33 O         138.7445  138.2769  162.8718 O.3     1  UNL1       -0.4701
     34 C         139.9424  137.4927  163.3188 C.3     1  UNL1        0.2525
     35 N         140.2298  138.3001  157.8925 N.pl3   1  UNL1       -0.3033
     36 C         139.8297  137.6347  157.1224 C.3     1  UNL1        0.1123
     37 C         141.6972  138.5663  157.7322 C.3     1  UNL1        0.1082
     38 C         142.2939  139.8307  158.2756 C.3     1  UNL1        0.0938
     39 N         142.6995  139.9093  159.7175 N.3     1  UNL1       -0.2688
     40 C         143.6558  138.9018  160.2837 C.3     1  UNL1        0.0897
     41 C         142.1489  140.9954  160.5934 C.3     1  UNL1        0.0897
@<TRIPOS>BOND
     1    11    12    2
     2    12     7    1
     3     7     8    2
     4     7     9   am
     5     9     1    1
     6     1     2   ar
     7     2     3   ar
     8     3    13    1
     9    13    15    1
    10    15    16   ar
    11    16    17   ar
    12    17    18   ar
    13    18    19   ar
    14    19    21    1
    15    21    22   ar
    16    22    23   ar
    17    23    24   ar
    18    24    25   ar
    19    25    26   ar
    20    26    27   ar
    21    27    28   ar
    22    28    29   ar
    23    25    30    1
    24    30    31    1
    25    31    32    1
    26    19    20   ar
    27     3     4   ar
    28     4    33    1
    29    33    34    1
    30     4     5   ar
    31     5     6   ar
    32     6    35    1
    33    35    36    1
    34    35    37    1
    35    37    38    1
    36    38    39    1
    37    39    40    1
    38    39    41    1
    39     6     1   ar
    40    20    15   ar
    41    29    21   ar
    42    32    23    1
    43    29    24   ar
    44     9    10    1
    45    13    14    1
@<TRIPOS>MOLECULE
*****
 41 45 0 0 0
SMALL
GASTEIGER

@<TRIPOS>ATOM
      1 C         140.2884  144.8960  157.8073 C.ar    1  UNL1        0.0655
      2 C         140.8000  145.4113  159.1198 C.ar    1  UNL1        0.0337
      3 C         140.4295  144.7140  160.3951 C.ar    1  UNL1        0.0862
      4 C         139.5474  143.5014  160.3580 C.ar    1  UNL1        0.1534
      5 C         139.0358  142.9861  159.0455 C.ar    1  UNL1        0.0539
      6 C         139.4063  143.6834  157.7702 C.ar    1  UNL1        0.0647
      7 C         139.8240  146.7346  156.0314 C.2     1  UNL1        0.2497
      8 O         138.9281  147.1501  156.5008 O.2     1  UNL1       -0.2698
      9 N         140.6589  145.5934  156.5320 N.am    1  UNL1       -0.2794
     10 H         141.4499  145.3020  156.0235 H       1  UNL1        0.1552
     11 C         140.8341  146.6621  153.6388 C.2     1  UNL1        0.0048
     12 C         140.1945  147.4320  154.7561 C.2     1  UNL1        0.0580
     13 N         140.9411  145.2293  161.7077 N.pl3   1  UNL1       -0.2801
     14 H         140.5673  146.0552  162.0917 H       1  UNL1        0.1552
     15 C         142.0223  144.4863  162.4351 C.ar    1  UNL1        0.2207
     16 N         143.4022  144.4094  161.8521 N.ar    1  UNL1       -0.2120
     17 C         144.4833  143.6664  162.5796 C.ar    1  UNL1        0.1034
     18 C         144.1844  143.0003  163.8900 C.ar    1  UNL1        0.0400
     19 C         142.8045  143.0773  164.4729 C.ar    1  UNL1        0.0872
     20 N         141.7234  143.8202  163.7455 N.ar    1  UNL1       -0.2135
     21 C         142.5057  142.4112  165.7833 C.ar    1  UNL1        0.0364
     22 C         143.3433  142.4927  167.0250 C.ar    1  UNL1        0.0774
     23 N         142.6721  141.6786  168.0912 N.ar    1  UNL1       -0.3263
     24 C         141.4197  141.0939  167.5083 C.ar    1  UNL1        0.0559
     25 C         140.3596  140.2077  168.0921 C.ar    1  UNL1       -0.0063
     26 C         139.1967  139.7743  167.2496 C.ar    1  UNL1       -0.0028
     27 C         139.0939  140.2270  165.8233 C.ar    1  UNL1       -0.0002
     28 C         140.1540  141.1133  165.2395 C.ar    1  UNL1        0.0015
     29 C         141.3169  141.5467  166.0820 C.ar    1  UNL1        0.0184
     30 C         140.7162  139.9135  169.5262 C.3     1  UNL1        0.0298
     31 C         141.9306  140.4254  170.2428 C.3     1  UNL1        0.0292
     32 C         142.9085  141.3080  169.5253 C.3     1  UNL1        0.1064
     33 O         139.1769  142.8041  161.6333 O.3     1  UNL1       -0.4701
     34 C         137.9584  143.2328  162.3958 C.3     1  UNL1        0.2525
     35 N         138.8946  143.1680  156.4577 N.pl3   1  UNL1       -0.3033
     36 C         139.4466  142.5748  155.7233 C.3     1  UNL1        0.1123
     37 C         137.4839  143.4563  156.0371 C.3     1  UNL1        0.1082
     38 C         136.5521  142.3264  155.7131 C.3     1  UNL1        0.0938
     39 N         135.8632  142.2809  154.3815 N.3     1  UNL1       -0.2688
     40 C         136.3705  143.1189  153.2455 C.3     1  UNL1        0.0897
     41 C         134.6669  141.3974  154.1858 C.3     1  UNL1        0.0897
@<TRIPOS>BOND
     1    11    12    2
     2    12     7    1
     3     7     8    2
     4     7     9   am
     5     9     1    1
     6     1     2   ar
     7     2     3   ar
     8     3    13    1
     9    13    15    1
    10    15    16   ar
    11    16    17   ar
    12    17    18   ar
    13    18    19   ar
    14    19    21    1
    15    21    22   ar
    16    22    23   ar
    17    23    24   ar
    18    24    25   ar
    19    25    26   ar
    20    26    27   ar
    21    27    28   ar
    22    28    29   ar
    23    25    30    1
    24    30    31    1
    25    31    32    1
    26    19    20   ar
    27     3     4   ar
    28     4    33    1
    29    33    34    1
    30     4     5   ar
    31     5     6   ar
    32     6    35    1
    33    35    36    1
    34    35    37    1
    35    37    38    1
    36    38    39    1
    37    39    40    1
    38    39    41    1
    39     6     1   ar
    40    20    15   ar
    41    29    21   ar
    42    32    23    1
    43    29    24   ar
    44     9    10    1
    45    13    14    1
