@<TRIPOS>MOLECULE
*****
 34 36 0 0 0
SMALL
GASTEIGER

@<TRIPOS>ATOM
      1 C         138.8266  139.4210  162.1626 C.ar    1  UNL1        0.2235
      2 C         138.9954  139.0487  163.6058 C.ar    1  UNL1        0.1730
      3 N         140.0189  138.0262  164.0018 N.ar    1  UNL1       -0.2056
      4 C         140.8737  137.3760  162.9547 C.ar    1  UNL1        0.2029
      5 N         140.7049  137.7483  161.5115 N.ar    1  UNL1       -0.1866
      6 C         139.6814  138.7708  161.1155 C.ar    1  UNL1        0.2642
      7 C         138.1799  141.8936  161.6958 C.3     1  UNL1        0.2528
      8 O         137.8030  140.4435  161.7666 O.3     1  UNL1       -0.4645
      9 N         138.1406  139.6989  164.6530 N.pl3   1  UNL1       -0.2944
     10 H         137.2008  139.9165  164.4560 H       1  UNL1        0.1537
     11 C         138.7176  140.0176  166.0004 C.ar    1  UNL1        0.0633
     12 C         139.6752  141.1619  166.1546 C.ar    1  UNL1        0.0187
     13 C         140.2522  141.4806  167.5021 C.ar    1  UNL1        0.0392
     14 C         139.8716  140.6551  168.6952 C.ar    1  UNL1        0.1860
     15 N         138.9140  139.5108  168.5410 N.ar    1  UNL1       -0.2304
     16 C         138.3370  139.1921  167.1936 C.ar    1  UNL1        0.0742
     17 C         137.3794  138.0479  167.0394 C.3     1  UNL1        0.0535
     18 S         140.4486  140.9738  170.0426 S.O2    1  UNL1        0.0268
     19 C         141.0256  141.2925  171.3901 C.3     1  UNL1        0.1834
     20 O         139.5471  139.9523  170.6702 O.2     1  UNL1       -0.1671
     21 O         141.3500  141.9952  169.4149 O.2     1  UNL1       -0.1671
     22 O         139.5126  139.1431  159.6722 O.3     1  UNL1       -0.4617
     23 C         140.5013  138.6606  158.6526 C.3     1  UNL1        0.1711
     24 C         140.0611  137.7276  157.5637 C.3     1  UNL1        0.0652
     25 C         141.0498  137.2451  156.5442 C.3     1  UNL1        0.1004
     26 N         142.4789  137.6956  156.6134 N.am    1  UNL1       -0.2458
     27 C         143.4676  137.2131  155.5939 C.2     1  UNL1        0.4048
     28 O         144.8967  137.6636  155.6631 O.2     1  UNL1       -0.2262
     29 C         142.9192  138.6286  157.7022 C.3     1  UNL1        0.1004
     30 C         141.9304  139.1111  158.7219 C.3     1  UNL1        0.0652
     31 O         143.0273  136.2801  154.5050 O.3     1  UNL1       -0.4383
     32 C         142.9070  134.8104  154.7798 C.3     1  UNL1        0.1707
     33 C         143.7616  134.1722  155.8344 C.3     1  UNL1        0.0474
     34 C         141.9320  133.9789  154.0000 C.3     1  UNL1        0.0474
@<TRIPOS>BOND
     1     7     8    1
     2     8     1    1
     3     1     2   ar
     4     2     9    1
     5     9    11    1
     6    11    12   ar
     7    12    13   ar
     8    13    14   ar
     9    14    18    1
    10    18    19    1
    11    18    20    2
    12    18    21    2
    13    14    15   ar
    14    15    16   ar
    15    16    17    1
    16     2     3   ar
    17     3     4   ar
    18     4     5   ar
    19     5     6   ar
    20     6    22    1
    21    22    23    1
    22    23    24    1
    23    24    25    1
    24    25    26    1
    25    26    27   am
    26    27    28    2
    27    27    31    1
    28    31    32    1
    29    32    33    1
    30    32    34    1
    31    26    29    1
    32    29    30    1
    33     6     1   ar
    34    30    23    1
    35    16    11   ar
    36     9    10    1
@<TRIPOS>MOLECULE
*****
 34 36 0 0 0
SMALL
GASTEIGER

@<TRIPOS>ATOM
      1 C         139.8009  140.1568  162.5309 C.ar    1  UNL1        0.2235
      2 C         138.5434  140.5283  163.2591 C.ar    1  UNL1        0.1730
      3 N         137.6866  141.6503  162.7520 N.ar    1  UNL1       -0.2056
      4 C         138.0874  142.4007  161.5167 C.ar    1  UNL1        0.2029
      5 N         139.3450  142.0292  160.7884 N.ar    1  UNL1       -0.1866
      6 C         140.2018  140.9073  161.2955 C.ar    1  UNL1        0.2642
      7 C         140.4116  137.6318  162.5680 C.3     1  UNL1        0.2528
      8 O         140.6577  139.0348  163.0379 O.3     1  UNL1       -0.4645
      9 N         138.1425  139.7778  164.4945 N.pl3   1  UNL1       -0.2944
     10 H         137.4869  139.0457  164.4348 H       1  UNL1        0.1537
     11 C         138.7403  140.1428  165.8209 C.ar    1  UNL1        0.0633
     12 C         139.5994  141.3661  165.9452 C.ar    1  UNL1        0.0187
     13 C         140.1973  141.7310  167.2717 C.ar    1  UNL1        0.0392
     14 C         139.9361  140.8727  168.4737 C.ar    1  UNL1        0.1860
     15 N         139.0770  139.6494  168.3494 N.ar    1  UNL1       -0.2304
     16 C         138.4791  139.2844  167.0230 C.ar    1  UNL1        0.0742
     17 C         137.6200  138.0611  166.8987 C.3     1  UNL1        0.0535
     18 S         140.5340  141.2376  169.8001 S.O2    1  UNL1        0.0268
     19 C         141.1318  141.6026  171.1266 C.3     1  UNL1        0.1834
     20 O         139.2131  140.9859  170.4648 O.2     1  UNL1       -0.1671
     21 O         141.8548  141.4894  169.1354 O.2     1  UNL1       -0.1671
     22 O         141.4594  140.5358  160.5672 O.3     1  UNL1       -0.4617
     23 C         141.4157  139.5184  159.4659 C.3     1  UNL1        0.1711
     24 C         142.6333  138.7007  159.1514 C.3     1  UNL1        0.0652
     25 C         142.5896  137.6833  158.0501 C.3     1  UNL1        0.1004
     26 N         141.3282  137.4835  157.2633 N.am    1  UNL1       -0.2458
     27 C         141.2845  136.4660  156.1620 C.2     1  UNL1        0.4048
     28 O         140.0231  136.2662  155.3752 O.2     1  UNL1       -0.2262
     29 C         140.1106  138.3011  157.5777 C.3     1  UNL1        0.1004
     30 C         140.1543  139.3185  158.6791 C.3     1  UNL1        0.0652
     31 O         142.5021  135.6484  155.8474 O.3     1  UNL1       -0.4383
     32 C         142.6038  134.2348  156.3389 C.3     1  UNL1        0.1707
     33 C         141.8267  133.1468  155.6590 C.3     1  UNL1        0.0474
     34 C         143.4825  133.9094  157.5102 C.3     1  UNL1        0.0474
@<TRIPOS>BOND
     1     7     8    1
     2     8     1    1
     3     1     2   ar
     4     2     9    1
     5     9    11    1
     6    11    12   ar
     7    12    13   ar
     8    13    14   ar
     9    14    18    1
    10    18    19    1
    11    18    20    2
    12    18    21    2
    13    14    15   ar
    14    15    16   ar
    15    16    17    1
    16     2     3   ar
    17     3     4   ar
    18     4     5   ar
    19     5     6   ar
    20     6    22    1
    21    22    23    1
    22    23    24    1
    23    24    25    1
    24    25    26    1
    25    26    27   am
    26    27    28    2
    27    27    31    1
    28    31    32    1
    29    32    33    1
    30    32    34    1
    31    26    29    1
    32    29    30    1
    33     6     1   ar
    34    30    23    1
    35    16    11   ar
    36     9    10    1
@<TRIPOS>MOLECULE
*****
 34 36 0 0 0
SMALL
GASTEIGER

@<TRIPOS>ATOM
      1 C         140.5240  138.3149  161.1233 C.ar    1  UNL1        0.2235
      2 C         139.5396  138.1540  162.2436 C.ar    1  UNL1        0.1730
      3 N         138.1394  138.6701  162.0915 N.ar    1  UNL1       -0.2056
      4 C         137.7236  139.3471  160.8192 C.ar    1  UNL1        0.2029
      5 N         138.7080  139.5080  159.6990 N.ar    1  UNL1       -0.1866
      6 C         140.1082  138.9919  159.8511 C.ar    1  UNL1        0.2642
      7 C         143.0797  138.7553  161.2801 C.3     1  UNL1        0.2528
      8 O         141.9242  137.7989  161.2754 O.3     1  UNL1       -0.4645
      9 N         139.9553  137.4770  163.5160 N.pl3   1  UNL1       -0.2944
     10 H         140.2853  136.5497  163.4951 H       1  UNL1        0.1537
     11 C         139.8684  138.2129  164.8201 C.ar    1  UNL1        0.0633
     12 C         138.5395  138.3945  165.4917 C.ar    1  UNL1        0.0187
     13 C         138.4527  139.1304  166.7960 C.ar    1  UNL1        0.0392
     14 C         139.6947  139.6848  167.4285 C.ar    1  UNL1        0.1860
     15 N         141.0236  139.5032  166.7568 N.ar    1  UNL1       -0.2304
     16 C         141.1105  138.7673  165.4527 C.ar    1  UNL1        0.0742
     17 C         142.4394  138.5858  164.7811 C.3     1  UNL1        0.0535
     18 S         139.6078  140.4207  168.7326 S.O2    1  UNL1        0.0268
     19 C         139.5208  141.1566  170.0369 C.3     1  UNL1        0.1834
     20 O         138.4771  139.5320  169.1588 O.2     1  UNL1       -0.1671
     21 O         140.7385  141.3094  168.3065 O.2     1  UNL1       -0.1671
     22 O         141.0926  139.1529  158.7307 O.3     1  UNL1       -0.4617
     23 C         141.3445  138.0165  157.7846 C.3     1  UNL1        0.1711
     24 C         142.6005  137.2051  157.9044 C.3     1  UNL1        0.0652
     25 C         142.8523  136.0687  156.9583 C.3     1  UNL1        0.1004
     26 N         141.8483  135.7437  155.8923 N.am    1  UNL1       -0.2458
     27 C         142.1002  134.6074  154.9462 C.2     1  UNL1        0.4048
     28 O         141.0962  134.2824  153.8802 O.2     1  UNL1       -0.2262
     29 C         140.5924  136.5551  155.7724 C.3     1  UNL1        0.1004
     30 C         140.3405  137.6915  156.7186 C.3     1  UNL1        0.0652
     31 O         143.3561  133.7959  155.0660 O.3     1  UNL1       -0.4383
     32 C         143.2781  132.3416  155.4248 C.3     1  UNL1        0.1707
     33 C         143.0048  131.9324  156.8418 C.3     1  UNL1        0.0474
     34 C         143.4733  131.2965  154.3667 C.3     1  UNL1        0.0474
@<TRIPOS>BOND
     1     7     8    1
     2     8     1    1
     3     1     2   ar
     4     2     9    1
     5     9    11    1
     6    11    12   ar
     7    12    13   ar
     8    13    14   ar
     9    14    18    1
    10    18    19    1
    11    18    20    2
    12    18    21    2
    13    14    15   ar
    14    15    16   ar
    15    16    17    1
    16     2     3   ar
    17     3     4   ar
    18     4     5   ar
    19     5     6   ar
    20     6    22    1
    21    22    23    1
    22    23    24    1
    23    24    25    1
    24    25    26    1
    25    26    27   am
    26    27    28    2
    27    27    31    1
    28    31    32    1
    29    32    33    1
    30    32    34    1
    31    26    29    1
    32    29    30    1
    33     6     1   ar
    34    30    23    1
    35    16    11   ar
    36     9    10    1
@<TRIPOS>MOLECULE
*****
 34 36 0 0 0
SMALL
GASTEIGER

@<TRIPOS>ATOM
      1 C         140.4035  139.6740  161.8543 C.ar    1  UNL1        0.2235
      2 C         139.9449  140.5289  160.7103 C.ar    1  UNL1        0.1730
      3 N         138.5307  141.0270  160.6660 N.ar    1  UNL1       -0.2056
      4 C         137.5751  140.6702  161.7657 C.ar    1  UNL1        0.2029
      5 N         138.0336  139.8153  162.9097 N.ar    1  UNL1       -0.1866
      6 C         139.4478  139.3172  162.9540 C.ar    1  UNL1        0.2642
      7 C         142.1207  137.7473  161.5561 C.3     1  UNL1        0.2528
      8 O         141.8176  139.1759  161.8986 O.3     1  UNL1       -0.4645
      9 N         140.9006  140.8857  159.6105 N.pl3   1  UNL1       -0.2944
     10 H         141.1478  141.8266  159.4592 H       1  UNL1        0.1537
     11 C         141.4795  139.8090  158.7413 C.ar    1  UNL1        0.0633
     12 C         140.5807  138.7782  158.1252 C.ar    1  UNL1        0.0187
     13 C         141.1598  137.7015  157.2559 C.ar    1  UNL1        0.0392
     14 C         142.6375  137.6556  157.0029 C.ar    1  UNL1        0.1860
     15 N         143.5363  138.6864  157.6190 N.ar    1  UNL1       -0.2304
     16 C         142.9574  139.7631  158.4882 C.ar    1  UNL1        0.0742
     17 C         143.8561  140.7939  159.1043 C.3     1  UNL1        0.0535
     18 S         143.2165  136.5790  156.1337 S.O2    1  UNL1        0.0268
     19 C         143.7954  135.5022  155.2645 C.3     1  UNL1        0.1834
     20 O         142.0102  135.7246  156.3885 O.2     1  UNL1       -0.1671
     21 O         144.4228  137.4333  155.8789 O.2     1  UNL1       -0.1671
     22 O         139.9064  138.4623  164.0982 O.3     1  UNL1       -0.4617
     23 C         139.8497  138.9923  165.5002 C.3     1  UNL1        0.1711
     24 C         141.0909  139.5276  166.1505 C.3     1  UNL1        0.0652
     25 C         141.0342  140.0576  167.5525 C.3     1  UNL1        0.1004
     26 N         139.7363  140.0523  168.3044 N.am    1  UNL1       -0.2458
     27 C         139.6796  140.5822  169.7065 C.2     1  UNL1        0.4048
     28 O         138.3817  140.5769  170.4584 O.2     1  UNL1       -0.2262
     29 C         138.4951  139.5169  167.6543 C.3     1  UNL1        0.1004
     30 C         138.5517  138.9869  166.2521 C.3     1  UNL1        0.0652
     31 O         140.9208  141.1176  170.3568 O.3     1  UNL1       -0.4383
     32 C         141.3678  142.5219  170.0774 C.3     1  UNL1        0.1707
     33 C         140.3594  143.5723  169.7170 C.3     1  UNL1        0.0474
     34 C         142.8232  142.8759  170.1584 C.3     1  UNL1        0.0474
@<TRIPOS>BOND
     1     7     8    1
     2     8     1    1
     3     1     2   ar
     4     2     9    1
     5     9    11    1
     6    11    12   ar
     7    12    13   ar
     8    13    14   ar
     9    14    18    1
    10    18    19    1
    11    18    20    2
    12    18    21    2
    13    14    15   ar
    14    15    16   ar
    15    16    17    1
    16     2     3   ar
    17     3     4   ar
    18     4     5   ar
    19     5     6   ar
    20     6    22    1
    21    22    23    1
    22    23    24    1
    23    24    25    1
    24    25    26    1
    25    26    27   am
    26    27    28    2
    27    27    31    1
    28    31    32    1
    29    32    33    1
    30    32    34    1
    31    26    29    1
    32    29    30    1
    33     6     1   ar
    34    30    23    1
    35    16    11   ar
    36     9    10    1
@<TRIPOS>MOLECULE
*****
 34 36 0 0 0
SMALL
GASTEIGER

@<TRIPOS>ATOM
      1 C         141.1300  140.8373  165.9292 C.ar    1  UNL1        0.2235
      2 C         141.0639  142.1239  166.6975 C.ar    1  UNL1        0.1730
      3 N         141.8583  142.2855  167.9595 N.ar    1  UNL1       -0.2056
      4 C         142.7188  141.1606  168.4533 C.ar    1  UNL1        0.2029
      5 N         142.7850  139.8740  167.6851 N.ar    1  UNL1       -0.1866
      6 C         141.9905  139.7123  166.4230 C.ar    1  UNL1        0.2642
      7 C         138.9451  140.1158  164.7227 C.3     1  UNL1        0.2528
      8 O         140.3356  140.6757  164.6672 O.3     1  UNL1       -0.4645
      9 N         140.2034  143.2489  166.2037 N.pl3   1  UNL1       -0.2944
     10 H         139.5392  143.6602  166.8028 H       1  UNL1        0.1537
     11 C         140.3548  143.7474  164.7971 C.ar    1  UNL1        0.0633
     12 C         141.7161  144.0789  164.2613 C.ar    1  UNL1        0.0187
     13 C         141.8675  144.5774  162.8546 C.ar    1  UNL1        0.0392
     14 C         140.6577  144.7443  161.9838 C.ar    1  UNL1        0.1860
     15 N         139.2964  144.4128  162.5195 N.ar    1  UNL1       -0.2304
     16 C         139.1449  143.9143  163.9261 C.ar    1  UNL1        0.0742
     17 C         137.7837  143.5828  164.4619 C.3     1  UNL1        0.0535
     18 S         140.8091  145.2427  160.5772 S.O2    1  UNL1        0.0268
     19 C         140.9605  145.7412  159.1705 C.3     1  UNL1        0.1834
     20 O         139.4996  145.9652  160.6922 O.2     1  UNL1       -0.1671
     21 O         142.1186  144.5202  160.4622 O.2     1  UNL1       -0.1671
     22 O         142.0567  138.4256  165.6548 O.3     1  UNL1       -0.4617
     23 C         142.2997  138.4474  164.1748 C.3     1  UNL1        0.1711
     24 C         143.4331  139.2533  163.6126 C.3     1  UNL1        0.0652
     25 C         143.6762  139.2751  162.1326 C.3     1  UNL1        0.1004
     26 N         142.7858  138.4910  161.2148 N.am    1  UNL1       -0.2458
     27 C         143.0289  138.5128  159.7348 C.2     1  UNL1        0.4048
     28 O         142.1385  137.7288  158.8169 O.2     1  UNL1       -0.2262
     29 C         141.6524  137.6852  161.7769 C.3     1  UNL1        0.1004
     30 C         141.4094  137.6634  163.2569 C.3     1  UNL1        0.0652
     31 O         144.1623  139.3187  159.1726 O.3     1  UNL1       -0.4383
     32 C         143.8877  140.6291  158.4962 C.3     1  UNL1        0.1707
     33 C         144.9132  141.2302  157.5814 C.3     1  UNL1        0.0474
     34 C         142.5876  141.3382  158.7345 C.3     1  UNL1        0.0474
@<TRIPOS>BOND
     1     7     8    1
     2     8     1    1
     3     1     2   ar
     4     2     9    1
     5     9    11    1
     6    11    12   ar
     7    12    13   ar
     8    13    14   ar
     9    14    18    1
    10    18    19    1
    11    18    20    2
    12    18    21    2
    13    14    15   ar
    14    15    16   ar
    15    16    17    1
    16     2     3   ar
    17     3     4   ar
    18     4     5   ar
    19     5     6   ar
    20     6    22    1
    21    22    23    1
    22    23    24    1
    23    24    25    1
    24    25    26    1
    25    26    27   am
    26    27    28    2
    27    27    31    1
    28    31    32    1
    29    32    33    1
    30    32    34    1
    31    26    29    1
    32    29    30    1
    33     6     1   ar
    34    30    23    1
    35    16    11   ar
    36     9    10    1
@<TRIPOS>MOLECULE
*****
 34 36 0 0 0
SMALL
GASTEIGER

@<TRIPOS>ATOM
      1 C         138.8522  139.3346  162.1751 C.ar    1  UNL1        0.2235
      2 C         139.0326  139.0627  163.6391 C.ar    1  UNL1        0.1730
      3 N         140.0493  138.0588  164.0958 N.ar    1  UNL1       -0.2056
      4 C         140.8856  137.3268  163.0885 C.ar    1  UNL1        0.2029
      5 N         140.7051  137.5987  161.6244 N.ar    1  UNL1       -0.1866
      6 C         139.6885  138.6026  161.1677 C.ar    1  UNL1        0.2642
      7 C         138.2382  141.7665  161.4977 C.3     1  UNL1        0.2528
      8 O         137.8356  140.3385  161.7184 O.3     1  UNL1       -0.4645
      9 N         138.1964  139.7948  164.6466 N.pl3   1  UNL1       -0.2944
     10 H         137.2771  140.0649  164.4202 H       1  UNL1        0.1537
     11 C         138.7607  140.1152  165.9989 C.ar    1  UNL1        0.0633
     12 C         139.6702  141.2955  166.1716 C.ar    1  UNL1        0.0187
     13 C         140.2345  141.6159  167.5240 C.ar    1  UNL1        0.0392
     14 C         139.8894  140.7560  168.7036 C.ar    1  UNL1        0.1860
     15 N         138.9799  139.5758  168.5309 N.ar    1  UNL1       -0.2304
     16 C         138.4156  139.2553  167.1786 C.ar    1  UNL1        0.0742
     17 C         137.5061  138.0750  167.0059 C.3     1  UNL1        0.0535
     18 S         140.4537  141.0765  170.0560 S.O2    1  UNL1        0.0268
     19 C         141.0180  141.3970  171.4084 C.3     1  UNL1        0.1834
     20 O         139.2293  141.8816  170.3761 O.2     1  UNL1       -0.1671
     21 O         141.6781  140.2714  169.7358 O.2     1  UNL1       -0.1671
     22 O         139.5081  138.8745  159.7036 O.3     1  UNL1       -0.4617
     23 C         140.7023  139.1521  158.8396 C.3     1  UNL1        0.1711
     24 C         141.0867  140.5672  158.5235 C.3     1  UNL1        0.0652
     25 C         142.2809  140.8449  157.6595 C.3     1  UNL1        0.1004
     26 N         143.0910  139.7075  157.1116 N.am    1  UNL1       -0.2458
     27 C         144.2853  139.9851  156.2476 C.2     1  UNL1        0.4048
     28 O         145.0953  138.8478  155.6997 O.2     1  UNL1       -0.2262
     29 C         142.7067  138.2924  157.4277 C.3     1  UNL1        0.1004
     30 C         141.5124  138.0147  158.2917 C.3     1  UNL1        0.0652
     31 O         144.6696  141.4002  155.9315 O.3     1  UNL1       -0.4383
     32 C         145.7493  142.0785  156.7214 C.3     1  UNL1        0.1707
     33 C         147.1200  142.2392  156.1340 C.3     1  UNL1        0.0474
     34 C         145.4582  142.5962  158.0989 C.3     1  UNL1        0.0474
@<TRIPOS>BOND
     1     7     8    1
     2     8     1    1
     3     1     2   ar
     4     2     9    1
     5     9    11    1
     6    11    12   ar
     7    12    13   ar
     8    13    14   ar
     9    14    18    1
    10    18    19    1
    11    18    20    2
    12    18    21    2
    13    14    15   ar
    14    15    16   ar
    15    16    17    1
    16     2     3   ar
    17     3     4   ar
    18     4     5   ar
    19     5     6   ar
    20     6    22    1
    21    22    23    1
    22    23    24    1
    23    24    25    1
    24    25    26    1
    25    26    27   am
    26    27    28    2
    27    27    31    1
    28    31    32    1
    29    32    33    1
    30    32    34    1
    31    26    29    1
    32    29    30    1
    33     6     1   ar
    34    30    23    1
    35    16    11   ar
    36     9    10    1
@<TRIPOS>MOLECULE
*****
 34 36 0 0 0
SMALL
GASTEIGER

@<TRIPOS>ATOM
      1 C         139.4337  140.8802  161.6453 C.ar    1  UNL1        0.2235
      2 C         139.3502  142.0865  160.7578 C.ar    1  UNL1        0.1730
      3 N         138.4707  143.2398  161.1405 N.ar    1  UNL1       -0.2056
      4 C         137.6746  143.1867  162.4106 C.ar    1  UNL1        0.2029
      5 N         137.7580  141.9803  163.2981 N.ar    1  UNL1       -0.1866
      6 C         138.6375  140.8271  162.9154 C.ar    1  UNL1        0.2642
      7 C         139.7536  138.5918  160.4575 C.3     1  UNL1        0.2528
      8 O         140.3132  139.7269  161.2626 O.3     1  UNL1       -0.4645
      9 N         140.1464  142.1397  159.4876 N.pl3   1  UNL1       -0.2944
     10 H         140.7803  141.4175  159.2733 H       1  UNL1        0.1537
     11 C         139.9767  143.2931  158.5438 C.ar    1  UNL1        0.0633
     12 C         139.1415  143.1345  157.3080 C.ar    1  UNL1        0.0187
     13 C         138.9718  144.2880  156.3642 C.ar    1  UNL1        0.0392
     14 C         139.6374  145.6001  156.6562 C.ar    1  UNL1        0.1860
     15 N         140.4726  145.7588  157.8920 N.ar    1  UNL1       -0.2304
     16 C         140.6423  144.6053  158.8358 C.ar    1  UNL1        0.0742
     17 C         141.4776  144.7640  160.0716 C.3     1  UNL1        0.0535
     18 S         139.4677  146.7535  155.7125 S.O2    1  UNL1        0.0268
     19 C         139.2981  147.9070  154.7686 C.3     1  UNL1        0.1834
     20 O         139.8534  145.8700  154.5633 O.2     1  UNL1       -0.1671
     21 O         139.0821  147.6371  156.8616 O.2     1  UNL1       -0.1671
     22 O         138.7209  139.6206  163.8030 O.3     1  UNL1       -0.4617
     23 C         139.0771  139.7784  165.2515 C.3     1  UNL1        0.1711
     24 C         140.3631  140.4462  165.6393 C.3     1  UNL1        0.0652
     25 C         140.7193  140.6039  167.0878 C.3     1  UNL1        0.1004
     26 N         139.7894  140.0939  168.1486 N.am    1  UNL1       -0.2458
     27 C         140.1456  140.2517  169.5971 C.2     1  UNL1        0.4048
     28 O         139.2158  139.7417  170.6579 O.2     1  UNL1       -0.2262
     29 C         138.5035  139.4262  167.7609 C.3     1  UNL1        0.1004
     30 C         138.1473  139.2684  166.3123 C.3     1  UNL1        0.0652
     31 O         141.4316  140.9195  169.9849 O.3     1  UNL1       -0.4383
     32 C         141.4918  142.4125  170.1154 C.3     1  UNL1        0.1707
     33 C         142.7842  143.0823  170.4773 C.3     1  UNL1        0.0474
     34 C         140.2595  143.2359  169.8840 C.3     1  UNL1        0.0474
@<TRIPOS>BOND
     1     7     8    1
     2     8     1    1
     3     1     2   ar
     4     2     9    1
     5     9    11    1
     6    11    12   ar
     7    12    13   ar
     8    13    14   ar
     9    14    18    1
    10    18    19    1
    11    18    20    2
    12    18    21    2
    13    14    15   ar
    14    15    16   ar
    15    16    17    1
    16     2     3   ar
    17     3     4   ar
    18     4     5   ar
    19     5     6   ar
    20     6    22    1
    21    22    23    1
    22    23    24    1
    23    24    25    1
    24    25    26    1
    25    26    27   am
    26    27    28    2
    27    27    31    1
    28    31    32    1
    29    32    33    1
    30    32    34    1
    31    26    29    1
    32    29    30    1
    33     6     1   ar
    34    30    23    1
    35    16    11   ar
    36     9    10    1
@<TRIPOS>MOLECULE
*****
 34 36 0 0 0
SMALL
GASTEIGER

@<TRIPOS>ATOM
      1 C         140.2956  137.8087  157.1621 C.ar    1  UNL1        0.2235
      2 C         140.0899  138.8153  158.2550 C.ar    1  UNL1        0.1730
      3 N         141.2631  139.3149  159.0450 N.ar    1  UNL1       -0.2056
      4 C         142.6419  138.8080  158.7421 C.ar    1  UNL1        0.2029
      5 N         142.8476  137.8014  157.6492 N.ar    1  UNL1       -0.1866
      6 C         141.6745  137.3018  156.8592 C.ar    1  UNL1        0.2642
      7 C         138.7980  137.9220  155.0422 C.3     1  UNL1        0.2528
      8 O         139.1225  137.3090  156.3721 O.3     1  UNL1       -0.4645
      9 N         138.7110  139.3222  158.5580 N.pl3   1  UNL1       -0.2944
     10 H         137.9491  139.0377  158.0032 H       1  UNL1        0.1537
     11 C         138.4931  140.2626  159.7060 C.ar    1  UNL1        0.0633
     12 C         138.2301  139.7208  161.0798 C.ar    1  UNL1        0.0187
     13 C         138.0122  140.6613  162.2279 C.ar    1  UNL1        0.0392
     14 C         138.0573  142.1435  162.0022 C.ar    1  UNL1        0.1860
     15 N         138.3203  142.6853  160.6285 N.ar    1  UNL1       -0.2304
     16 C         138.5382  141.7449  159.4804 C.ar    1  UNL1        0.0742
     17 C         138.8013  142.2867  158.1066 C.3     1  UNL1        0.0535
     18 S         137.8394  143.0839  163.1503 S.O2    1  UNL1        0.0268
     19 C         137.6215  144.0243  164.2985 C.3     1  UNL1        0.1834
     20 O         137.7815  141.9190  164.0935 O.2     1  UNL1       -0.1671
     21 O         137.8973  144.2488  162.2071 O.2     1  UNL1       -0.1671
     22 O         141.8802  136.2951  155.7663 O.3     1  UNL1       -0.4617
     23 C         142.2394  134.8795  156.1083 C.3     1  UNL1        0.1711
     24 C         143.2658  134.6008  157.1661 C.3     1  UNL1        0.0652
     25 C         143.6250  133.1853  157.5082 C.3     1  UNL1        0.1004
     26 N         142.9578  132.0483  156.7925 N.am    1  UNL1       -0.2458
     27 C         143.3170  130.6327  157.1346 C.2     1  UNL1        0.4048
     28 O         142.6498  129.4958  156.4189 O.2     1  UNL1       -0.2262
     29 C         141.9314  132.3269  155.7348 C.3     1  UNL1        0.1004
     30 C         141.5722  133.7426  155.3927 C.3     1  UNL1        0.0652
     31 O         144.3434  130.3540  158.1924 O.3     1  UNL1       -0.4383
     32 C         144.3397  129.0385  158.9129 C.3     1  UNL1        0.1707
     33 C         143.0733  128.5264  159.5326 C.3     1  UNL1        0.0474
     34 C         145.6023  128.2350  159.0139 C.3     1  UNL1        0.0474
@<TRIPOS>BOND
     1     7     8    1
     2     8     1    1
     3     1     2   ar
     4     2     9    1
     5     9    11    1
     6    11    12   ar
     7    12    13   ar
     8    13    14   ar
     9    14    18    1
    10    18    19    1
    11    18    20    2
    12    18    21    2
    13    14    15   ar
    14    15    16   ar
    15    16    17    1
    16     2     3   ar
    17     3     4   ar
    18     4     5   ar
    19     5     6   ar
    20     6    22    1
    21    22    23    1
    22    23    24    1
    23    24    25    1
    24    25    26    1
    25    26    27   am
    26    27    28    2
    27    27    31    1
    28    31    32    1
    29    32    33    1
    30    32    34    1
    31    26    29    1
    32    29    30    1
    33     6     1   ar
    34    30    23    1
    35    16    11   ar
    36     9    10    1
@<TRIPOS>MOLECULE
*****
 34 36 0 0 0
SMALL
GASTEIGER

@<TRIPOS>ATOM
      1 C         140.5796  137.6911  156.8719 C.ar    1  UNL1        0.2235
      2 C         141.9935  137.3334  156.5214 C.ar    1  UNL1        0.1730
      3 N         143.1341  138.0522  157.1790 N.ar    1  UNL1       -0.2056
      4 C         142.8607  139.1288  158.1871 C.ar    1  UNL1        0.2029
      5 N         141.4468  139.4864  158.5376 N.ar    1  UNL1       -0.1866
      6 C         140.3063  138.7676  157.8800 C.ar    1  UNL1        0.2642
      7 C         138.8361  137.5172  154.9536 C.3     1  UNL1        0.2528
      8 O         139.4391  136.9722  156.2143 O.3     1  UNL1       -0.4645
      9 N         142.2669  136.2568  155.5132 N.pl3   1  UNL1       -0.2944
     10 H         142.1687  136.4461  154.5521 H       1  UNL1        0.1537
     11 C         142.6901  134.8920  155.9694 C.ar    1  UNL1        0.0633
     12 C         143.4045  134.7267  157.2780 C.ar    1  UNL1        0.0187
     13 C         143.8276  133.3618  157.7342 C.ar    1  UNL1        0.0392
     14 C         143.5364  132.1623  156.8819 C.ar    1  UNL1        0.1860
     15 N         142.8220  132.3277  155.5734 N.ar    1  UNL1       -0.2304
     16 C         142.3989  133.6925  155.1171 C.ar    1  UNL1        0.0742
     17 C         141.6845  133.8579  153.8086 C.3     1  UNL1        0.0535
     18 S         143.9595  130.7975  157.3381 S.O2    1  UNL1        0.0268
     19 C         144.3828  129.4327  157.7944 C.3     1  UNL1        0.1834
     20 O         145.0942  131.4065  158.1073 O.2     1  UNL1       -0.1671
     21 O         142.8249  130.1886  156.5689 O.2     1  UNL1       -0.1671
     22 O         138.8923  139.1253  158.2306 O.3     1  UNL1       -0.4617
     23 C         138.6172  140.0905  159.3453 C.3     1  UNL1        0.1711
     24 C         138.7505  141.5659  159.1100 C.3     1  UNL1        0.0652
     25 C         138.4754  142.5311  160.2247 C.3     1  UNL1        0.1004
     26 N         138.0670  142.0209  161.5748 N.am    1  UNL1       -0.2458
     27 C         137.7919  142.9861  162.6896 C.2     1  UNL1        0.4048
     28 O         137.3835  142.4760  164.0397 O.2     1  UNL1       -0.2262
     29 C         137.9337  140.5456  161.8103 C.3     1  UNL1        0.1004
     30 C         138.2088  139.5803  160.6955 C.3     1  UNL1        0.0652
     31 O         137.9253  144.4616  162.4542 O.3     1  UNL1       -0.4383
     32 C         139.2211  145.1548  162.7542 C.3     1  UNL1        0.1707
     33 C         139.9821  144.8154  164.0014 C.3     1  UNL1        0.0474
     34 C         139.7561  146.1875  161.8069 C.3     1  UNL1        0.0474
@<TRIPOS>BOND
     1     7     8    1
     2     8     1    1
     3     1     2   ar
     4     2     9    1
     5     9    11    1
     6    11    12   ar
     7    12    13   ar
     8    13    14   ar
     9    14    18    1
    10    18    19    1
    11    18    20    2
    12    18    21    2
    13    14    15   ar
    14    15    16   ar
    15    16    17    1
    16     2     3   ar
    17     3     4   ar
    18     4     5   ar
    19     5     6   ar
    20     6    22    1
    21    22    23    1
    22    23    24    1
    23    24    25    1
    24    25    26    1
    25    26    27   am
    26    27    28    2
    27    27    31    1
    28    31    32    1
    29    32    33    1
    30    32    34    1
    31    26    29    1
    32    29    30    1
    33     6     1   ar
    34    30    23    1
    35    16    11   ar
    36     9    10    1
