@<TRIPOS>MOLECULE
*****
 32 34 0 0 0
SMALL
GASTEIGER

@<TRIPOS>ATOM
      1 C         142.9813  139.0366  159.5625 C.ar    1  UNL1        0.1721
      2 C         143.9171  138.9249  160.7294 C.ar    1  UNL1        0.0356
      3 C         143.5326  139.5067  162.0574 C.ar    1  UNL1       -0.0203
      4 C         142.2123  140.2001  162.2185 C.ar    1  UNL1       -0.0084
      5 C         141.2765  140.3118  161.0516 C.ar    1  UNL1        0.0368
      6 C         141.6610  139.7300  159.7235 C.ar    1  UNL1        0.1721
      7 C         141.8278  140.7819  163.5466 C.3     1  UNL1        0.0835
      8 C         140.5075  141.4753  163.7077 C.3     1  UNL1        0.0641
      9 C         140.1230  142.0571  165.0357 C.3     1  UNL1        0.1718
     10 C         141.0588  141.9455  166.2026 C.3     1  UNL1        0.0562
     11 C         142.3791  141.2521  166.0416 C.3     1  UNL1        0.0759
     12 N         142.7636  140.6703  164.7135 N.3     1  UNL1       -0.2698
     13 C         144.0839  139.9769  164.5525 C.3     1  UNL1        0.0770
     14 C         144.4684  139.3951  163.2244 C.3     1  UNL1        0.0435
     15 C         142.7175  137.1906  157.7534 C.3     1  UNL1        0.2526
     16 O         143.3658  138.4548  158.2344 O.3     1  UNL1       -0.4684
     17 O         140.7252  139.8416  158.5566 O.3     1  UNL1       -0.4684
     18 C         139.2517  139.9984  158.7892 C.3     1  UNL1        0.2526
     19 O         138.8026  142.7506  165.1967 O.3     1  UNL1       -0.4513
     20 C         138.6740  144.2064  164.8591 C.2     1  UNL1        0.3310
     21 O         138.5135  145.2189  165.9541 O.2     1  UNL1       -0.2486
     22 C         138.7057  144.6497  163.4264 C.3     1  UNL1        0.1511
     23 N         137.5265  144.3929  162.5356 N.3     1  UNL1       -0.3134
     24 H         136.7992  143.9116  163.0645 H       1  UNL1        0.1193
     25 H         137.8152  143.8122  161.7483 H       1  UNL1        0.1193
     26 C         139.9166  145.3497  162.8846 C.3     1  UNL1        0.0251
     27 C         141.2569  145.1313  163.5217 C.3     1  UNL1        0.0019
     28 C         139.7873  146.2680  161.7056 C.3     1  UNL1        0.0019
     29 C         140.6743  142.5273  167.5307 C.3     1  UNL1        0.0050
     30 C         140.1099  141.6422  168.6021 C.3     1  UNL1        0.0002
     31 C         139.6762  140.2453  168.2697 C.3     1  UNL1        0.0000
     32 C         139.9791  142.1540  170.0061 C.3     1  UNL1        0.0000
@<TRIPOS>BOND
     1    15    16    1
     2    16     1    1
     3     1     2   ar
     4     2     3   ar
     5     3     4   ar
     6     4     5   ar
     7     5     6   ar
     8     6    17    1
     9    17    18    1
    10     4     7    1
    11     7     8    1
    12     8     9    1
    13     9    19    1
    14    19    20    1
    15    20    21    2
    16    20    22    1
    17    22    23    1
    18    22    26    1
    19    26    27    1
    20    26    28    1
    21     9    10    1
    22    10    29    1
    23    29    30    1
    24    30    31    1
    25    30    32    1
    26    10    11    1
    27    11    12    1
    28    12    13    1
    29    13    14    1
    30     6     1   ar
    31    12     7    1
    32    14     3    1
    33    23    24    1
    34    23    25    1
@<TRIPOS>MOLECULE
*****
 32 34 0 0 0
SMALL
GASTEIGER

@<TRIPOS>ATOM
      1 C         143.6155  139.9734  159.3838 C.ar    1  UNL1        0.1721
      2 C         144.3345  139.4815  160.6048 C.ar    1  UNL1        0.0356
      3 C         143.6857  139.5920  161.9527 C.ar    1  UNL1       -0.0203
      4 C         142.3179  140.1943  162.0796 C.ar    1  UNL1       -0.0084
      5 C         141.5988  140.6862  160.8586 C.ar    1  UNL1        0.0368
      6 C         142.2476  140.5757  159.5107 C.ar    1  UNL1        0.1721
      7 C         141.6691  140.3048  163.4275 C.3     1  UNL1        0.0835
      8 C         140.3012  140.9071  163.5544 C.3     1  UNL1        0.0641
      9 C         139.6524  141.0176  164.9023 C.3     1  UNL1        0.1718
     10 C         140.3715  140.5257  166.1233 C.3     1  UNL1        0.0562
     11 C         141.7393  139.9234  165.9965 C.3     1  UNL1        0.0759
     12 N         142.3881  139.8129  164.6486 N.3     1  UNL1       -0.2698
     13 C         143.7560  139.2106  164.5217 C.3     1  UNL1        0.0770
     14 C         144.4048  139.1001  163.1738 C.3     1  UNL1        0.0435
     15 C         144.8621  141.0773  157.3895 C.3     1  UNL1        0.2526
     16 O         144.2643  139.8629  158.0359 O.3     1  UNL1       -0.4684
     17 O         141.5285  141.0676  158.2896 O.3     1  UNL1       -0.4684
     18 C         141.3629  142.5405  158.0591 C.3     1  UNL1        0.2526
     19 O         138.2845  141.6200  165.0291 O.3     1  UNL1       -0.4513
     20 C         137.6932  142.3862  163.8832 C.2     1  UNL1        0.3310
     21 O         136.7825  141.6972  162.9107 O.2     1  UNL1       -0.2486
     22 C         138.0127  143.8415  163.7097 C.3     1  UNL1        0.1511
     23 N         137.4221  144.6075  162.5632 N.3     1  UNL1       -0.3134
     24 H         136.8331  143.9874  162.0075 H       1  UNL1        0.1193
     25 H         138.1720  144.9777  161.9793 H       1  UNL1        0.1193
     26 C         138.9228  144.5308  164.6826 C.3     1  UNL1        0.0251
     27 C         138.3682  145.0988  165.9552 C.3     1  UNL1        0.0019
     28 C         140.3876  144.6520  164.3828 C.3     1  UNL1        0.0019
     29 C         139.7227  140.6362  167.4712 C.3     1  UNL1        0.0050
     30 C         140.3842  141.4288  168.5593 C.3     1  UNL1        0.0002
     31 C         140.5525  142.9119  168.4106 C.3     1  UNL1        0.0000
     32 C         140.8776  140.7384  169.7963 C.3     1  UNL1        0.0000
@<TRIPOS>BOND
     1    15    16    1
     2    16     1    1
     3     1     2   ar
     4     2     3   ar
     5     3     4   ar
     6     4     5   ar
     7     5     6   ar
     8     6    17    1
     9    17    18    1
    10     4     7    1
    11     7     8    1
    12     8     9    1
    13     9    19    1
    14    19    20    1
    15    20    21    2
    16    20    22    1
    17    22    23    1
    18    22    26    1
    19    26    27    1
    20    26    28    1
    21     9    10    1
    22    10    29    1
    23    29    30    1
    24    30    31    1
    25    30    32    1
    26    10    11    1
    27    11    12    1
    28    12    13    1
    29    13    14    1
    30     6     1   ar
    31    12     7    1
    32    14     3    1
    33    23    24    1
    34    23    25    1
@<TRIPOS>MOLECULE
*****
 32 34 0 0 0
SMALL
GASTEIGER

@<TRIPOS>ATOM
      1 C         140.1276  141.2001  169.3503 C.ar    1  UNL1        0.1721
      2 C         139.1661  140.2486  168.7021 C.ar    1  UNL1        0.0356
      3 C         139.4522  139.7108  167.3314 C.ar    1  UNL1       -0.0203
      4 C         140.6999  140.1245  166.6089 C.ar    1  UNL1       -0.0084
      5 C         141.6614  141.0760  167.2570 C.ar    1  UNL1        0.0368
      6 C         141.3752  141.6138  168.6278 C.ar    1  UNL1        0.1721
      7 C         140.9861  139.5867  165.2381 C.3     1  UNL1        0.0835
      8 C         142.2338  140.0004  164.5156 C.3     1  UNL1        0.0641
      9 C         142.5199  139.4626  163.1449 C.3     1  UNL1        0.1718
     10 C         141.5584  138.5112  162.4967 C.3     1  UNL1        0.0562
     11 C         140.3108  138.0975  163.2192 C.3     1  UNL1        0.0759
     12 N         140.0246  138.6353  164.5899 N.3     1  UNL1       -0.2698
     13 C         138.7768  138.2216  165.3125 C.3     1  UNL1        0.0770
     14 C         138.4906  138.7593  166.6832 C.3     1  UNL1        0.0435
     15 C         139.4535  143.1762  170.8965 C.3     1  UNL1        0.2526
     16 O         139.8414  141.7379  170.7210 O.3     1  UNL1       -0.4684
     17 O         142.3368  142.5653  169.2759 O.3     1  UNL1       -0.4684
     18 C         143.6532  142.0652  169.7928 C.3     1  UNL1        0.2526
     19 O         143.7677  139.8763  162.4223 O.3     1  UNL1       -0.4513
     20 C         144.0241  141.3267  162.1384 C.2     1  UNL1        0.3310
     21 O         143.4167  141.9730  160.9287 O.2     1  UNL1       -0.2486
     22 C         144.8879  142.1309  163.0643 C.3     1  UNL1        0.1511
     23 N         146.3410  141.7922  163.2179 N.3     1  UNL1       -0.3134
     24 H         146.5688  140.9948  162.6241 H       1  UNL1        0.1193
     25 H         146.5344  141.5574  164.1915 H       1  UNL1        0.1193
     26 C         144.2985  143.2738  163.8366 C.3     1  UNL1        0.0251
     27 C         144.1924  143.1938  165.3307 C.3     1  UNL1        0.0019
     28 C         143.8151  144.4967  163.1148 C.3     1  UNL1        0.0019
     29 C         141.8446  137.9734  161.1259 C.3     1  UNL1        0.0050
     30 C         141.7931  138.8858  159.9365 C.3     1  UNL1        0.0002
     31 C         140.6233  139.8054  159.7468 C.3     1  UNL1        0.0000
     32 C         142.9113  138.8786  158.9367 C.3     1  UNL1        0.0000
@<TRIPOS>BOND
     1    15    16    1
     2    16     1    1
     3     1     2   ar
     4     2     3   ar
     5     3     4   ar
     6     4     5   ar
     7     5     6   ar
     8     6    17    1
     9    17    18    1
    10     4     7    1
    11     7     8    1
    12     8     9    1
    13     9    19    1
    14    19    20    1
    15    20    21    2
    16    20    22    1
    17    22    23    1
    18    22    26    1
    19    26    27    1
    20    26    28    1
    21     9    10    1
    22    10    29    1
    23    29    30    1
    24    30    31    1
    25    30    32    1
    26    10    11    1
    27    11    12    1
    28    12    13    1
    29    13    14    1
    30     6     1   ar
    31    12     7    1
    32    14     3    1
    33    23    24    1
    34    23    25    1
@<TRIPOS>MOLECULE
*****
 32 34 0 0 0
SMALL
GASTEIGER

@<TRIPOS>ATOM
      1 C         141.4633  144.7700  159.9794 C.ar    1  UNL1        0.1721
      2 C         140.1669  145.0215  160.6908 C.ar    1  UNL1        0.0356
      3 C         139.7522  144.1371  161.8291 C.ar    1  UNL1       -0.0203
      4 C         140.6338  143.0012  162.2560 C.ar    1  UNL1       -0.0084
      5 C         141.9302  142.7497  161.5446 C.ar    1  UNL1        0.0368
      6 C         142.3449  143.6341  160.4063 C.ar    1  UNL1        0.1721
      7 C         140.2191  142.1168  163.3944 C.3     1  UNL1        0.0835
      8 C         141.1008  140.9808  163.8213 C.3     1  UNL1        0.0641
      9 C         140.6860  140.0964  164.9597 C.3     1  UNL1        0.1718
     10 C         139.3897  140.3479  165.6711 C.3     1  UNL1        0.0562
     11 C         138.5080  141.4839  165.2441 C.3     1  UNL1        0.0759
     12 N         138.9228  142.3683  164.1058 N.3     1  UNL1       -0.2698
     13 C         138.0410  143.5043  163.6788 C.3     1  UNL1        0.0770
     14 C         138.4558  144.3887  162.5405 C.3     1  UNL1        0.0435
     15 C         140.9561  145.8586  157.6755 C.3     1  UNL1        0.2526
     16 O         141.8780  145.6544  158.8410 O.3     1  UNL1       -0.4684
     17 O         143.6414  143.3825  159.6949 O.3     1  UNL1       -0.4684
     18 C         144.7056  142.5507  160.3471 C.3     1  UNL1        0.2526
     19 O         141.5678  138.9604  165.3866 O.3     1  UNL1       -0.4513
     20 C         142.8187  139.2345  166.1675 C.2     1  UNL1        0.3310
     21 O         144.1485  138.7911  165.6335 O.2     1  UNL1       -0.2486
     22 C         142.7400  139.9521  167.4824 C.3     1  UNL1        0.1511
     23 N         142.8461  139.1814  168.7649 N.3     1  UNL1       -0.3134
     24 H         142.9677  138.1903  168.5569 H       1  UNL1        0.1193
     25 H         141.9950  139.3122  169.3116 H       1  UNL1        0.1193
     26 C         142.5552  141.4403  167.5148 C.3     1  UNL1        0.0251
     27 C         141.6348  142.0599  168.5241 C.3     1  UNL1        0.0019
     28 C         143.2909  142.3089  166.5378 C.3     1  UNL1        0.0019
     29 C         138.9750  139.4635  166.8094 C.3     1  UNL1        0.0050
     30 C         138.1656  138.2289  166.5436 C.3     1  UNL1        0.0002
     31 C         138.4867  137.3613  165.3629 C.3     1  UNL1        0.0000
     32 C         137.0349  137.8620  167.4586 C.3     1  UNL1        0.0000
@<TRIPOS>BOND
     1    15    16    1
     2    16     1    1
     3     1     2   ar
     4     2     3   ar
     5     3     4   ar
     6     4     5   ar
     7     5     6   ar
     8     6    17    1
     9    17    18    1
    10     4     7    1
    11     7     8    1
    12     8     9    1
    13     9    19    1
    14    19    20    1
    15    20    21    2
    16    20    22    1
    17    22    23    1
    18    22    26    1
    19    26    27    1
    20    26    28    1
    21     9    10    1
    22    10    29    1
    23    29    30    1
    24    30    31    1
    25    30    32    1
    26    10    11    1
    27    11    12    1
    28    12    13    1
    29    13    14    1
    30     6     1   ar
    31    12     7    1
    32    14     3    1
    33    23    24    1
    34    23    25    1
@<TRIPOS>MOLECULE
*****
 32 34 0 0 0
SMALL
GASTEIGER

@<TRIPOS>ATOM
      1 C         141.3033  140.2307  168.5053 C.ar    1  UNL1        0.1721
      2 C         142.5226  140.9863  168.0669 C.ar    1  UNL1        0.0356
      3 C         142.4753  141.8342  166.8304 C.ar    1  UNL1       -0.0203
      4 C         141.2086  141.9264  166.0323 C.ar    1  UNL1       -0.0084
      5 C         139.9893  141.1708  166.4707 C.ar    1  UNL1        0.0368
      6 C         140.0366  140.3230  167.7072 C.ar    1  UNL1        0.1721
      7 C         141.1613  142.7742  164.7958 C.3     1  UNL1        0.0835
      8 C         139.8946  142.8665  163.9977 C.3     1  UNL1        0.0641
      9 C         139.8473  143.7143  162.7612 C.3     1  UNL1        0.1718
     10 C         141.0666  144.4699  162.3228 C.3     1  UNL1        0.0562
     11 C         142.3333  144.3776  163.1208 C.3     1  UNL1        0.0759
     12 N         142.3807  143.5298  164.3573 N.3     1  UNL1       -0.2698
     13 C         143.6474  143.4376  165.1554 C.3     1  UNL1        0.0770
     14 C         143.6947  142.5898  166.3920 C.3     1  UNL1        0.0435
     15 C         142.6709  138.9260  170.2878 C.3     1  UNL1        0.2526
     16 O         141.3506  139.3829  169.7418 O.3     1  UNL1       -0.4684
     17 O         138.8172  139.5674  168.1456 O.3     1  UNL1       -0.4684
     18 C         137.9698  138.8577  167.1316 C.3     1  UNL1        0.2526
     19 O         138.5805  143.8065  161.9631 O.3     1  UNL1       -0.4513
     20 C         138.1184  142.6329  161.1513 C.2     1  UNL1        0.3310
     21 O         137.9900  142.7551  159.6618 O.2     1  UNL1       -0.2486
     22 C         137.7847  141.3370  161.8291 C.3     1  UNL1        0.1511
     23 N         136.7208  141.2954  162.8856 N.3     1  UNL1       -0.3134
     24 H         136.3329  142.2300  163.0145 H       1  UNL1        0.1193
     25 H         137.1261  140.9715  163.7638 H       1  UNL1        0.1193
     26 C         138.5148  140.0827  161.4502 C.3     1  UNL1        0.0251
     27 C         137.8289  138.7533  161.5605 C.3     1  UNL1        0.0019
     28 C         139.9308  140.1578  160.9610 C.3     1  UNL1        0.0019
     29 C         141.0193  145.3177  161.0863 C.3     1  UNL1        0.0050
     30 C         141.0814  144.6742  159.7328 C.3     1  UNL1        0.0002
     31 C         140.3304  145.2747  158.5816 C.3     1  UNL1        0.0000
     32 C         141.8946  143.4300  159.5305 C.3     1  UNL1        0.0000
@<TRIPOS>BOND
     1    15    16    1
     2    16     1    1
     3     1     2   ar
     4     2     3   ar
     5     3     4   ar
     6     4     5   ar
     7     5     6   ar
     8     6    17    1
     9    17    18    1
    10     4     7    1
    11     7     8    1
    12     8     9    1
    13     9    19    1
    14    19    20    1
    15    20    21    2
    16    20    22    1
    17    22    23    1
    18    22    26    1
    19    26    27    1
    20    26    28    1
    21     9    10    1
    22    10    29    1
    23    29    30    1
    24    30    31    1
    25    30    32    1
    26    10    11    1
    27    11    12    1
    28    12    13    1
    29    13    14    1
    30     6     1   ar
    31    12     7    1
    32    14     3    1
    33    23    24    1
    34    23    25    1
@<TRIPOS>MOLECULE
*****
 32 34 0 0 0
SMALL
GASTEIGER

@<TRIPOS>ATOM
      1 C         139.8320  140.9920  169.1029 C.ar    1  UNL1        0.1721
      2 C         139.1881  139.8876  168.3183 C.ar    1  UNL1        0.0356
      3 C         139.2658  139.8877  166.8203 C.ar    1  UNL1       -0.0203
      4 C         139.9875  140.9923  166.1069 C.ar    1  UNL1       -0.0084
      5 C         140.6315  142.0967  166.8914 C.ar    1  UNL1        0.0368
      6 C         140.5537  142.0965  168.3894 C.ar    1  UNL1        0.1721
      7 C         140.0653  140.9924  164.6089 C.3     1  UNL1        0.0835
      8 C         140.7870  142.0970  163.8955 C.3     1  UNL1        0.0641
      9 C         140.8647  142.0971  162.3975 C.3     1  UNL1        0.1718
     10 C         140.2207  140.9927  161.6129 C.3     1  UNL1        0.0562
     11 C         139.4990  139.8882  162.3264 C.3     1  UNL1        0.0759
     12 N         139.4213  139.8880  163.8244 N.3     1  UNL1       -0.2698
     13 C         138.6995  138.7834  164.5378 C.3     1  UNL1        0.0770
     14 C         138.6218  138.7832  166.0358 C.3     1  UNL1        0.0435
     15 C         140.9755  140.6828  171.4152 C.3     1  UNL1        0.2526
     16 O         139.7543  140.9918  170.6009 O.3     1  UNL1       -0.4684
     17 O         141.1978  143.2010  169.1740 O.3     1  UNL1       -0.4684
     18 C         140.3468  144.1920  169.9113 C.3     1  UNL1        0.2526
     19 O         141.5864  143.2018  161.6841 O.3     1  UNL1       -0.4513
     20 C         143.0856  143.2093  161.6353 C.2     1  UNL1        0.3310
     21 O         143.8016  142.5758  160.4795 O.2     1  UNL1       -0.2486
     22 C         143.8688  143.8503  162.7425 C.3     1  UNL1        0.1511
     23 N         144.0157  145.3423  162.7909 N.3     1  UNL1       -0.3134
     24 H         143.5236  145.7582  162.0002 H       1  UNL1        0.1193
     25 H         145.0044  145.5883  162.7435 H       1  UNL1        0.1193
     26 C         144.5051  142.9993  163.8012 C.3     1  UNL1        0.0251
     27 C         145.4904  141.9357  163.4167 C.3     1  UNL1        0.0019
     28 C         144.1560  143.2118  165.2445 C.3     1  UNL1        0.0019
     29 C         140.2985  140.9929  160.1150 C.3     1  UNL1        0.0050
     30 C         139.1471  141.5096  159.3043 C.3     1  UNL1        0.0002
     31 C         139.0541  142.9713  158.9803 C.3     1  UNL1        0.0000
     32 C         138.0886  140.5647  158.8175 C.3     1  UNL1        0.0000
@<TRIPOS>BOND
     1    15    16    1
     2    16     1    1
     3     1     2   ar
     4     2     3   ar
     5     3     4   ar
     6     4     5   ar
     7     5     6   ar
     8     6    17    1
     9    17    18    1
    10     4     7    1
    11     7     8    1
    12     8     9    1
    13     9    19    1
    14    19    20    1
    15    20    21    2
    16    20    22    1
    17    22    23    1
    18    22    26    1
    19    26    27    1
    20    26    28    1
    21     9    10    1
    22    10    29    1
    23    29    30    1
    24    30    31    1
    25    30    32    1
    26    10    11    1
    27    11    12    1
    28    12    13    1
    29    13    14    1
    30     6     1   ar
    31    12     7    1
    32    14     3    1
    33    23    24    1
    34    23    25    1
@<TRIPOS>MOLECULE
*****
 32 34 0 0 0
SMALL
GASTEIGER

@<TRIPOS>ATOM
      1 C         141.4590  144.6332  159.6914 C.ar    1  UNL1        0.1721
      2 C         140.2812  145.0780  160.5069 C.ar    1  UNL1        0.0356
      3 C         140.1595  144.6555  161.9410 C.ar    1  UNL1       -0.0203
      4 C         141.2155  143.7883  162.5596 C.ar    1  UNL1       -0.0084
      5 C         142.3932  143.3435  161.7441 C.ar    1  UNL1        0.0368
      6 C         142.5149  143.7660  160.3100 C.ar    1  UNL1        0.1721
      7 C         141.0938  143.3658  163.9937 C.3     1  UNL1        0.0835
      8 C         142.1497  142.4985  164.6123 C.3     1  UNL1        0.0641
      9 C         142.0280  142.0760  166.0464 C.3     1  UNL1        0.1718
     10 C         140.8503  142.5208  166.8619 C.3     1  UNL1        0.0562
     11 C         139.7943  143.3881  166.2433 C.3     1  UNL1        0.0759
     12 N         139.9160  143.8105  164.8092 N.3     1  UNL1       -0.2698
     13 C         138.8600  144.6778  164.1906 C.3     1  UNL1        0.0770
     14 C         138.9817  145.1003  162.7565 C.3     1  UNL1        0.0435
     15 C         140.8364  144.3096  157.1898 C.3     1  UNL1        0.2526
     16 O         141.5807  145.0557  158.2573 O.3     1  UNL1       -0.4684
     17 O         143.6927  143.3211  159.4944 O.3     1  UNL1       -0.4684
     18 C         143.6216  142.0461  158.7076 C.3     1  UNL1        0.2526
     19 O         143.0841  141.2087  166.6650 O.3     1  UNL1       -0.4513
     20 C         142.9192  139.7179  166.6750 C.2     1  UNL1        0.3310
     21 O         143.0389  138.9586  167.9631 O.2     1  UNL1       -0.2486
     22 C         142.6346  138.9862  165.3968 C.3     1  UNL1        0.1511
     23 N         143.6927  138.8861  164.3383 N.3     1  UNL1       -0.3134
     24 H         144.5349  139.3679  164.6529 H       1  UNL1        0.1193
     25 H         143.3551  139.3179  163.4781 H       1  UNL1        0.1193
     26 C         141.2919  138.3547  165.1770 C.3     1  UNL1        0.0251
     27 C         141.1839  137.0693  164.4115 C.3     1  UNL1        0.0019
     28 C         140.0572  139.0087  165.7228 C.3     1  UNL1        0.0019
     29 C         140.7286  142.0983  168.2961 C.3     1  UNL1        0.0050
     30 C         141.2463  142.9884  169.3867 C.3     1  UNL1        0.0002
     31 C         142.6367  142.7957  169.9154 C.3     1  UNL1        0.0000
     32 C         140.3736  144.0714  169.9487 C.3     1  UNL1        0.0000
@<TRIPOS>BOND
     1    15    16    1
     2    16     1    1
     3     1     2   ar
     4     2     3   ar
     5     3     4   ar
     6     4     5   ar
     7     5     6   ar
     8     6    17    1
     9    17    18    1
    10     4     7    1
    11     7     8    1
    12     8     9    1
    13     9    19    1
    14    19    20    1
    15    20    21    2
    16    20    22    1
    17    22    23    1
    18    22    26    1
    19    26    27    1
    20    26    28    1
    21     9    10    1
    22    10    29    1
    23    29    30    1
    24    30    31    1
    25    30    32    1
    26    10    11    1
    27    11    12    1
    28    12    13    1
    29    13    14    1
    30     6     1   ar
    31    12     7    1
    32    14     3    1
    33    23    24    1
    34    23    25    1
@<TRIPOS>MOLECULE
*****
 32 34 0 0 0
SMALL
GASTEIGER

@<TRIPOS>ATOM
      1 C         142.3970  140.7741  169.0411 C.ar    1  UNL1        0.1721
      2 C         142.6129  139.6478  168.0743 C.ar    1  UNL1        0.0356
      3 C         142.4617  139.8848  166.6008 C.ar    1  UNL1       -0.0203
      4 C         142.0947  141.2482  166.0943 C.ar    1  UNL1       -0.0084
      5 C         141.8789  142.3744  167.0611 C.ar    1  UNL1        0.0368
      6 C         142.0301  142.1374  168.5345 C.ar    1  UNL1        0.1721
      7 C         141.9436  141.4852  164.6208 C.3     1  UNL1        0.0835
      8 C         141.5766  142.8485  164.1143 C.3     1  UNL1        0.0641
      9 C         141.4255  143.0855  162.6409 C.3     1  UNL1        0.1718
     10 C         141.6413  141.9593  161.6740 C.3     1  UNL1        0.0562
     11 C         142.0083  140.5959  162.1806 C.3     1  UNL1        0.0759
     12 N         142.1594  140.3589  163.6540 N.3     1  UNL1       -0.2698
     13 C         142.5264  138.9955  164.1605 C.3     1  UNL1        0.0770
     14 C         142.6776  138.7585  165.6340 C.3     1  UNL1        0.0435
     15 C         141.3325  140.4521  171.3891 C.3     1  UNL1        0.2526
     16 O         142.5482  140.5371  170.5145 O.3     1  UNL1       -0.4684
     17 O         141.8142  143.2638  169.5014 O.3     1  UNL1       -0.4684
     18 C         140.4213  143.7078  169.8368 C.3     1  UNL1        0.2526
     19 O         141.0585  144.4489  162.1343 O.3     1  UNL1       -0.4513
     20 C         139.6229  144.8835  162.1230 C.2     1  UNL1        0.3310
     21 O         139.2610  146.2648  161.6637 O.2     1  UNL1       -0.2486
     22 C         138.5491  143.9367  162.5711 C.3     1  UNL1        0.1511
     23 N         137.7073  143.2226  161.5556 N.3     1  UNL1       -0.3134
     24 H         137.9997  143.4973  160.6178 H       1  UNL1        0.1193
     25 H         136.7271  143.4697  161.6921 H       1  UNL1        0.1193
     26 C         138.3173  143.7041  164.0347 C.3     1  UNL1        0.0251
     27 C         137.8317  142.3683  164.5141 C.3     1  UNL1        0.0019
     28 C         138.5710  144.8073  165.0189 C.3     1  UNL1        0.0019
     29 C         141.4902  142.1963  160.2006 C.3     1  UNL1        0.0050
     30 C         142.6038  142.8361  159.4257 C.3     1  UNL1        0.0002
     31 C         142.3014  143.6039  158.1731 C.3     1  UNL1        0.0000
     32 C         144.0200  142.7081  159.9035 C.3     1  UNL1        0.0000
@<TRIPOS>BOND
     1    15    16    1
     2    16     1    1
     3     1     2   ar
     4     2     3   ar
     5     3     4   ar
     6     4     5   ar
     7     5     6   ar
     8     6    17    1
     9    17    18    1
    10     4     7    1
    11     7     8    1
    12     8     9    1
    13     9    19    1
    14    19    20    1
    15    20    21    2
    16    20    22    1
    17    22    23    1
    18    22    26    1
    19    26    27    1
    20    26    28    1
    21     9    10    1
    22    10    29    1
    23    29    30    1
    24    30    31    1
    25    30    32    1
    26    10    11    1
    27    11    12    1
    28    12    13    1
    29    13    14    1
    30     6     1   ar
    31    12     7    1
    32    14     3    1
    33    23    24    1
    34    23    25    1
@<TRIPOS>MOLECULE
*****
 32 34 0 0 0
SMALL
GASTEIGER

@<TRIPOS>ATOM
      1 C         141.5611  138.0178  158.1137 C.ar    1  UNL1        0.1721
      2 C         142.7641  137.9347  159.0059 C.ar    1  UNL1        0.0356
      3 C         142.7031  138.4841  160.4003 C.ar    1  UNL1       -0.0203
      4 C         141.4391  139.1165  160.9026 C.ar    1  UNL1       -0.0084
      5 C         140.2362  139.1996  160.0105 C.ar    1  UNL1        0.0368
      6 C         140.2972  138.6502  158.6160 C.ar    1  UNL1        0.1721
      7 C         141.3781  139.6659  162.2971 C.3     1  UNL1        0.0835
      8 C         140.1141  140.2984  162.7994 C.3     1  UNL1        0.0641
      9 C         140.0531  140.8477  164.1938 C.3     1  UNL1        0.1718
     10 C         141.2561  140.7647  165.0859 C.3     1  UNL1        0.0562
     11 C         142.5201  140.1322  164.5836 C.3     1  UNL1        0.0759
     12 N         142.5811  139.5829  163.1892 N.3     1  UNL1       -0.2698
     13 C         143.8451  138.9504  162.6869 C.3     1  UNL1        0.0770
     14 C         143.9061  138.4010  161.2924 C.3     1  UNL1        0.0435
     15 C         142.2792  136.1446  156.4628 C.3     1  UNL1        0.2526
     16 O         141.6221  137.4684  156.7193 O.3     1  UNL1       -0.4684
     17 O         139.0941  138.7333  157.7239 O.3     1  UNL1       -0.4684
     18 C         138.9573  139.8684  156.7530 C.3     1  UNL1        0.2526
     19 O         138.7891  141.4802  164.6961 O.3     1  UNL1       -0.4513
     20 C         137.9364  142.2925  163.7671 C.2     1  UNL1        0.3310
     21 O         136.8294  141.6352  162.9974 O.2     1  UNL1       -0.2486
     22 C         138.1906  143.7623  163.6079 C.3     1  UNL1        0.1511
     23 N         137.5533  144.5156  162.4782 N.3     1  UNL1       -0.3134
     24 H         136.9847  143.8772  161.9219 H       1  UNL1        0.1193
     25 H         138.2792  144.9248  161.8901 H       1  UNL1        0.1193
     26 C         139.0822  144.4786  164.5784 C.3     1  UNL1        0.0251
     27 C         140.5499  144.6051  164.2958 C.3     1  UNL1        0.0019
     28 C         138.5061  145.0685  165.8315 C.3     1  UNL1        0.0019
     29 C         141.1951  141.3141  166.4804 C.3     1  UNL1        0.0050
     30 C         141.0662  140.3822  167.6486 C.3     1  UNL1        0.0002
     31 C         139.7417  140.2156  168.3326 C.3     1  UNL1        0.0000
     32 C         142.2619  139.6168  168.1330 C.3     1  UNL1        0.0000
@<TRIPOS>BOND
     1    15    16    1
     2    16     1    1
     3     1     2   ar
     4     2     3   ar
     5     3     4   ar
     6     4     5   ar
     7     5     6   ar
     8     6    17    1
     9    17    18    1
    10     4     7    1
    11     7     8    1
    12     8     9    1
    13     9    19    1
    14    19    20    1
    15    20    21    2
    16    20    22    1
    17    22    23    1
    18    22    26    1
    19    26    27    1
    20    26    28    1
    21     9    10    1
    22    10    29    1
    23    29    30    1
    24    30    31    1
    25    30    32    1
    26    10    11    1
    27    11    12    1
    28    12    13    1
    29    13    14    1
    30     6     1   ar
    31    12     7    1
    32    14     3    1
    33    23    24    1
    34    23    25    1
