@<TRIPOS>MOLECULE
*****
 36 39 0 0 0
SMALL
GASTEIGER

@<TRIPOS>ATOM
      1 O         138.3736  139.4339  159.1548 O.2     1  UNL1       -0.2733
      2 C         139.6240  138.7486  158.6894 C.2     1  UNL1        0.2426
      3 N         140.6656  138.3315  159.6848 N.am    1  UNL1       -0.3018
      4 H         141.4863  137.8816  159.3793 H       1  UNL1        0.1495
      5 C         140.4569  138.5997  161.1459 C.3     1  UNL1        0.1035
      6 C         140.2805  137.7458  162.3664 C.3     1  UNL1        0.0933
      7 N         140.1616  138.9790  163.2120 N.3     1  UNL1       -0.2711
      8 C         140.3380  139.8330  161.9915 C.3     1  UNL1        0.0933
      9 C         139.9528  139.2473  164.6730 C.3     1  UNL1        0.0578
     10 C         138.6336  138.9305  165.3126 C.3     1  UNL1        0.0190
     11 C         138.4248  139.1987  166.7737 C.3     1  UNL1        0.0383
     12 C         139.5353  139.7837  167.5949 C.3     1  UNL1        0.1526
     13 F         138.4737  139.6545  168.6467 F       1  UNL1       -0.2355
     14 C         140.8546  140.1005  166.9553 C.3     1  UNL1        0.0383
     15 C         141.0634  139.8323  165.4943 C.3     1  UNL1        0.0190
     16 C         140.2772  140.3239  168.7815 C.ar    1  UNL1        0.0070
     17 C         139.6930  141.4498  169.5823 C.ar    1  UNL1       -0.0017
     18 C         140.4349  141.9899  170.7688 C.ar    1  UNL1       -0.0002
     19 C         141.7608  141.4041  171.1546 C.ar    1  UNL1       -0.0000
     20 C         142.3449  140.2783  170.3540 C.ar    1  UNL1       -0.0002
     21 C         141.6031  139.7381  169.1673 C.ar    1  UNL1       -0.0017
     22 C         139.8328  138.4803  157.2284 C.3     1  UNL1        0.1759
     23 N         140.3210  137.1363  156.7749 N.am    1  UNL1       -0.2931
     24 C         141.7895  136.8309  156.7802 C.2     1  UNL1        0.2462
     25 O         142.7700  137.8693  157.2390 O.2     1  UNL1       -0.2701
     26 H         139.6775  136.4548  156.4738 H       1  UNL1        0.1502
     27 C         142.2777  135.4869  156.3267 C.ar    1  UNL1        0.0533
     28 C         141.7143  134.8646  155.0837 C.ar    1  UNL1        0.0045
     29 C         142.2025  133.5207  154.6302 C.ar    1  UNL1        0.0001
     30 C         143.2541  132.7992  155.4199 C.ar    1  UNL1        0.0039
     31 C         143.8175  133.4215  156.6629 C.ar    1  UNL1        0.0716
     32 C         143.3293  134.7654  157.1164 C.ar    1  UNL1        0.0084
     33 C         144.8691  132.6999  157.4526 C.3     1  UNL1        0.4186
     34 F         145.9207  131.9784  158.2422 F       1  UNL1       -0.1659
     35 F         144.5476  133.5429  158.6509 F       1  UNL1       -0.1659
     36 F         145.1905  131.8570  156.2542 F       1  UNL1       -0.1659
@<TRIPOS>BOND
     1     1     2    2
     2     2    22    1
     3    22    23    1
     4    23    24   am
     5    24    25    2
     6    24    27    1
     7    27    28   ar
     8    28    29   ar
     9    29    30   ar
    10    30    31   ar
    11    31    33    1
    12    33    34    1
    13    33    35    1
    14    33    36    1
    15    31    32   ar
    16     2     3   am
    17     3     5    1
    18     5     6    1
    19     6     7    1
    20     9     7    1
    21     9    10    1
    22    10    11    1
    23    11    12    1
    24    12    13    1
    25    12    16    1
    26    16    17   ar
    27    17    18   ar
    28    18    19   ar
    29    19    20   ar
    30    20    21   ar
    31    12    14    1
    32    14    15    1
    33     7     8    1
    34    32    27   ar
    35     8     5    1
    36    15     9    1
    37    21    16   ar
    38    23    26    1
    39     3     4    1
@<TRIPOS>MOLECULE
*****
 36 39 0 0 0
SMALL
GASTEIGER

@<TRIPOS>ATOM
      1 O         141.6908  139.8949  159.1356 O.2     1  UNL1       -0.2733
      2 C         142.6247  138.7918  158.7344 C.2     1  UNL1        0.2426
      3 N         143.3571  138.0101  159.7843 N.am    1  UNL1       -0.3018
      4 H         143.9700  137.2861  159.5209 H       1  UNL1        0.1495
      5 C         143.1555  138.3313  161.2356 C.3     1  UNL1        0.1035
      6 C         143.8456  139.2151  162.2320 C.3     1  UNL1        0.0933
      7 N         142.8706  138.7858  163.2880 N.3     1  UNL1       -0.2711
      8 C         142.1806  137.9020  162.2916 C.3     1  UNL1        0.0933
      9 C         142.6691  139.1071  164.7393 C.3     1  UNL1        0.0578
     10 C         143.4536  138.3728  165.7859 C.3     1  UNL1        0.0190
     11 C         143.2520  138.6942  167.2372 C.3     1  UNL1        0.0383
     12 C         142.2661  139.7497  167.6418 C.3     1  UNL1        0.1526
     13 F         142.7688  139.3316  168.9918 F       1  UNL1       -0.2355
     14 C         141.4817  140.4840  166.5951 C.3     1  UNL1        0.0383
     15 C         141.6831  140.1627  165.1439 C.3     1  UNL1        0.0190
     16 C         141.4547  140.6601  168.5152 C.ar    1  UNL1        0.0070
     17 C         140.1432  140.1919  169.0729 C.ar    1  UNL1       -0.0017
     18 C         139.3319  141.1023  169.9463 C.ar    1  UNL1       -0.0002
     19 C         139.8319  142.4808  170.2620 C.ar    1  UNL1       -0.0000
     20 C         141.1433  142.9490  169.7044 C.ar    1  UNL1       -0.0002
     21 C         141.9548  142.0386  168.8310 C.ar    1  UNL1       -0.0017
     22 C         142.8263  138.4705  157.2832 C.3     1  UNL1        0.1759
     23 N         142.5728  137.0801  156.7806 N.am    1  UNL1       -0.2931
     24 C         143.5902  136.3985  155.9145 C.2     1  UNL1        0.2462
     25 O         144.8612  137.1073  155.5509 O.2     1  UNL1       -0.2701
     26 H         141.7386  136.6149  157.0192 H       1  UNL1        0.1502
     27 C         143.3367  135.0081  155.4119 C.ar    1  UNL1        0.0533
     28 C         142.6000  134.7995  154.1220 C.ar    1  UNL1        0.0045
     29 C         142.3466  133.4091  153.6195 C.ar    1  UNL1        0.0001
     30 C         142.8298  132.2274  154.4068 C.ar    1  UNL1        0.0039
     31 C         143.5665  132.4359  155.6966 C.ar    1  UNL1        0.0716
     32 C         143.8200  133.8263  156.1992 C.ar    1  UNL1        0.0084
     33 C         144.0498  131.2542  156.4839 C.3     1  UNL1        0.4186
     34 F         144.5330  130.0724  157.2713 F       1  UNL1       -0.1659
     35 F         145.2351  131.1319  155.5729 F       1  UNL1       -0.1659
     36 F         142.8645  131.3764  157.3950 F       1  UNL1       -0.1659
@<TRIPOS>BOND
     1     1     2    2
     2     2    22    1
     3    22    23    1
     4    23    24   am
     5    24    25    2
     6    24    27    1
     7    27    28   ar
     8    28    29   ar
     9    29    30   ar
    10    30    31   ar
    11    31    33    1
    12    33    34    1
    13    33    35    1
    14    33    36    1
    15    31    32   ar
    16     2     3   am
    17     3     5    1
    18     5     6    1
    19     6     7    1
    20     9     7    1
    21     9    10    1
    22    10    11    1
    23    11    12    1
    24    12    13    1
    25    12    16    1
    26    16    17   ar
    27    17    18   ar
    28    18    19   ar
    29    19    20   ar
    30    20    21   ar
    31    12    14    1
    32    14    15    1
    33     7     8    1
    34    32    27   ar
    35     8     5    1
    36    15     9    1
    37    21    16   ar
    38    23    26    1
    39     3     4    1
@<TRIPOS>MOLECULE
*****
 36 39 0 0 0
SMALL
GASTEIGER

@<TRIPOS>ATOM
      1 O         143.6659  139.0068  159.8321 O.2     1  UNL1       -0.2733
      2 C         142.5730  138.5627  158.9056 C.2     1  UNL1        0.2426
      3 N         141.1729  138.4031  159.4195 N.am    1  UNL1       -0.3018
      4 H         140.4556  138.1116  158.8114 H       1  UNL1        0.1495
      5 C         140.8656  138.6875  160.8599 C.3     1  UNL1        0.1035
      6 C         141.0466  137.9437  162.1499 C.3     1  UNL1        0.0933
      7 N         140.4311  139.0896  162.8970 N.3     1  UNL1       -0.2711
      8 C         140.2501  139.8334  161.6070 C.3     1  UNL1        0.0933
      9 C         140.1239  139.3739  164.3373 C.3     1  UNL1        0.0578
     10 C         138.9213  138.7533  164.9844 C.3     1  UNL1        0.0190
     11 C         138.6141  139.0377  166.4248 C.3     1  UNL1        0.0383
     12 C         139.5094  139.9426  167.2182 C.3     1  UNL1        0.1526
     13 F         138.4955  139.5943  168.2672 F       1  UNL1       -0.2355
     14 C         140.7120  140.5632  166.5711 C.3     1  UNL1        0.0383
     15 C         141.0192  140.2789  165.1307 C.3     1  UNL1        0.0190
     16 C         140.0526  140.7266  168.3758 C.ar    1  UNL1        0.0070
     17 C         140.1615  140.0882  169.7289 C.ar    1  UNL1       -0.0017
     18 C         140.7047  140.8722  170.8866 C.ar    1  UNL1       -0.0002
     19 C         141.1391  142.2946  170.6912 C.ar    1  UNL1       -0.0000
     20 C         141.0303  142.9330  169.3383 C.ar    1  UNL1       -0.0002
     21 C         140.4871  142.1490  168.1805 C.ar    1  UNL1       -0.0017
     22 C         142.8802  138.2784  157.4652 C.3     1  UNL1        0.1759
     23 N         143.3224  136.9066  157.0493 N.am    1  UNL1       -0.2931
     24 C         142.3398  135.9575  156.4299 C.2     1  UNL1        0.2462
     25 O         140.9151  136.3801  156.2263 O.2     1  UNL1       -0.2701
     26 H         144.2575  136.6293  157.1829 H       1  UNL1        0.1502
     27 C         142.7821  134.5858  156.0140 C.ar    1  UNL1        0.0533
     28 C         142.4446  134.0717  154.6459 C.ar    1  UNL1        0.0045
     29 C         142.8868  132.7001  154.2300 C.ar    1  UNL1        0.0001
     30 C         143.6665  131.8425  155.1823 C.ar    1  UNL1        0.0039
     31 C         144.0039  132.3566  156.5504 C.ar    1  UNL1        0.0716
     32 C         143.5617  133.7283  156.9662 C.ar    1  UNL1        0.0084
     33 C         144.7835  131.4991  157.5026 C.3     1  UNL1        0.4186
     34 F         145.5632  130.6415  158.4549 F       1  UNL1       -0.1659
     35 F         144.2608  130.2686  156.8225 F       1  UNL1       -0.1659
     36 F         145.3063  132.7296  158.1828 F       1  UNL1       -0.1659
@<TRIPOS>BOND
     1     1     2    2
     2     2    22    1
     3    22    23    1
     4    23    24   am
     5    24    25    2
     6    24    27    1
     7    27    28   ar
     8    28    29   ar
     9    29    30   ar
    10    30    31   ar
    11    31    33    1
    12    33    34    1
    13    33    35    1
    14    33    36    1
    15    31    32   ar
    16     2     3   am
    17     3     5    1
    18     5     6    1
    19     6     7    1
    20     9     7    1
    21     9    10    1
    22    10    11    1
    23    11    12    1
    24    12    13    1
    25    12    16    1
    26    16    17   ar
    27    17    18   ar
    28    18    19   ar
    29    19    20   ar
    30    20    21   ar
    31    12    14    1
    32    14    15    1
    33     7     8    1
    34    32    27   ar
    35     8     5    1
    36    15     9    1
    37    21    16   ar
    38    23    26    1
    39     3     4    1
@<TRIPOS>MOLECULE
*****
 36 39 0 0 0
SMALL
GASTEIGER

@<TRIPOS>ATOM
      1 O         141.5249  145.5311  159.1189 O.2     1  UNL1       -0.2733
      2 C         140.2896  144.8330  158.6321 C.2     1  UNL1        0.2426
      3 N         139.5562  143.8881  159.5372 N.am    1  UNL1       -0.3018
      4 H         138.7455  143.4300  159.2177 H       1  UNL1        0.1495
      5 C         140.0581  143.6411  160.9290 C.3     1  UNL1        0.1035
      6 C         140.6219  142.4581  161.6589 C.3     1  UNL1        0.0933
      7 N         140.7679  143.2917  162.8973 N.3     1  UNL1       -0.2711
      8 C         140.2041  144.4747  162.1675 C.3     1  UNL1        0.0933
      9 C         141.2698  143.0446  164.2891 C.3     1  UNL1        0.0578
     10 C         142.7448  142.9852  164.5549 C.3     1  UNL1        0.0190
     11 C         143.2467  142.7381  165.9468 C.3     1  UNL1        0.0383
     12 C         142.2735  142.5505  167.0727 C.3     1  UNL1        0.1526
     13 F         143.5665  142.4088  167.8197 F       1  UNL1       -0.2355
     14 C         140.7985  142.6100  166.8068 C.3     1  UNL1        0.0383
     15 C         140.2966  142.8570  165.4151 C.3     1  UNL1        0.0190
     16 C         141.7494  142.3137  168.4580 C.ar    1  UNL1        0.0070
     17 C         140.5955  143.1229  168.9718 C.ar    1  UNL1       -0.0017
     18 C         140.0714  142.8861  170.3572 C.ar    1  UNL1       -0.0002
     19 C         140.7011  141.8401  171.2287 C.ar    1  UNL1       -0.0000
     20 C         141.8548  141.0310  170.7150 C.ar    1  UNL1       -0.0002
     21 C         142.3791  141.2678  169.3296 C.ar    1  UNL1       -0.0017
     22 C         139.7877  145.0800  157.2404 C.3     1  UNL1        0.1759
     23 N         140.0890  146.3793  156.5539 N.am    1  UNL1       -0.2931
     24 C         139.1859  146.8797  155.4658 C.2     1  UNL1        0.2462
     25 O         137.9815  146.0809  155.0641 O.2     1  UNL1       -0.2701
     26 H         140.8794  146.9036  156.8176 H       1  UNL1        0.1502
     27 C         139.4871  148.1790  154.7794 C.ar    1  UNL1        0.0533
     28 C         140.3464  148.1962  153.5501 C.ar    1  UNL1        0.0045
     29 C         140.6476  149.4955  152.8637 C.ar    1  UNL1        0.0001
     30 C         140.0896  150.7776  153.4067 C.ar    1  UNL1        0.0039
     31 C         139.2303  150.7604  154.6360 C.ar    1  UNL1        0.0716
     32 C         138.9291  149.4611  155.3224 C.ar    1  UNL1        0.0084
     33 C         138.6722  152.0425  155.1790 C.3     1  UNL1        0.4186
     34 F         138.1142  153.3246  155.7220 F       1  UNL1       -0.1659
     35 F         139.1948  151.6932  156.5409 F       1  UNL1       -0.1659
     36 F         138.1496  152.3918  153.8171 F       1  UNL1       -0.1659
@<TRIPOS>BOND
     1     1     2    2
     2     2    22    1
     3    22    23    1
     4    23    24   am
     5    24    25    2
     6    24    27    1
     7    27    28   ar
     8    28    29   ar
     9    29    30   ar
    10    30    31   ar
    11    31    33    1
    12    33    34    1
    13    33    35    1
    14    33    36    1
    15    31    32   ar
    16     2     3   am
    17     3     5    1
    18     5     6    1
    19     6     7    1
    20     9     7    1
    21     9    10    1
    22    10    11    1
    23    11    12    1
    24    12    13    1
    25    12    16    1
    26    16    17   ar
    27    17    18   ar
    28    18    19   ar
    29    19    20   ar
    30    20    21   ar
    31    12    14    1
    32    14    15    1
    33     7     8    1
    34    32    27   ar
    35     8     5    1
    36    15     9    1
    37    21    16   ar
    38    23    26    1
    39     3     4    1
@<TRIPOS>MOLECULE
*****
 36 39 0 0 0
SMALL
GASTEIGER

@<TRIPOS>ATOM
      1 O         141.5121  145.3318  160.5005 O.2     1  UNL1       -0.2733
      2 C         141.4849  144.3640  161.6462 C.2     1  UNL1        0.2426
      3 N         142.3439  143.1348  161.6102 N.am    1  UNL1       -0.3018
      4 H         142.3260  142.4996  162.3621 H       1  UNL1        0.1495
      5 C         143.2301  142.8735  160.4285 C.3     1  UNL1        0.1035
      6 C         144.6606  142.4608  160.2463 C.3     1  UNL1        0.0933
      7 N         144.4834  142.5038  158.7574 N.3     1  UNL1       -0.2711
      8 C         143.0529  142.9165  158.9396 C.3     1  UNL1        0.0933
      9 C         145.3696  142.2424  157.5758 C.3     1  UNL1        0.0578
     10 C         144.9315  141.2859  156.5067 C.3     1  UNL1        0.0190
     11 C         145.8177  141.0245  155.3250 C.3     1  UNL1        0.0383
     12 C         147.1421  141.7197  155.2125 C.3     1  UNL1        0.1526
     13 F         147.1669  140.9065  153.9523 F       1  UNL1       -0.2355
     14 C         147.5803  142.6763  156.2816 C.3     1  UNL1        0.0383
     15 C         146.6941  142.9377  157.4632 C.3     1  UNL1        0.0190
     16 C         148.4751  142.1325  154.6623 C.ar    1  UNL1        0.0070
     17 C         148.5480  143.1156  153.5317 C.ar    1  UNL1       -0.0017
     18 C         149.8810  143.5284  152.9815 C.ar    1  UNL1       -0.0002
     19 C         151.1411  142.9581  153.5620 C.ar    1  UNL1       -0.0000
     20 C         151.0683  141.9751  154.6925 C.ar    1  UNL1       -0.0002
     21 C         149.7353  141.5622  155.2428 C.ar    1  UNL1       -0.0017
     22 C         140.5988  144.6253  162.8279 C.3     1  UNL1        0.1759
     23 N         140.6392  143.7070  164.0133 N.am    1  UNL1       -0.2931
     24 C         139.4902  142.7818  164.2848 C.2     1  UNL1        0.2462
     25 O         138.3008  142.7748  163.3709 O.2     1  UNL1       -0.2701
     26 H         141.4198  143.7117  164.6132 H       1  UNL1        0.1502
     27 C         139.5307  141.8635  165.4703 C.ar    1  UNL1        0.0533
     28 C         140.2843  142.2640  166.7038 C.ar    1  UNL1        0.0045
     29 C         140.3246  141.3457  167.8892 C.ar    1  UNL1        0.0001
     30 C         139.6114  140.0270  167.8410 C.ar    1  UNL1        0.0039
     31 C         138.8578  139.6266  166.6075 C.ar    1  UNL1        0.0716
     32 C         138.8174  140.5448  165.4221 C.ar    1  UNL1        0.0084
     33 C         138.1446  138.3078  166.5593 C.3     1  UNL1        0.4186
     34 F         137.4314  136.9891  166.5111 F       1  UNL1       -0.1659
     35 F         138.9402  137.9219  165.3476 F       1  UNL1       -0.1659
     36 F         137.3491  138.6938  167.7709 F       1  UNL1       -0.1659
@<TRIPOS>BOND
     1     1     2    2
     2     2    22    1
     3    22    23    1
     4    23    24   am
     5    24    25    2
     6    24    27    1
     7    27    28   ar
     8    28    29   ar
     9    29    30   ar
    10    30    31   ar
    11    31    33    1
    12    33    34    1
    13    33    35    1
    14    33    36    1
    15    31    32   ar
    16     2     3   am
    17     3     5    1
    18     5     6    1
    19     6     7    1
    20     9     7    1
    21     9    10    1
    22    10    11    1
    23    11    12    1
    24    12    13    1
    25    12    16    1
    26    16    17   ar
    27    17    18   ar
    28    18    19   ar
    29    19    20   ar
    30    20    21   ar
    31    12    14    1
    32    14    15    1
    33     7     8    1
    34    32    27   ar
    35     8     5    1
    36    15     9    1
    37    21    16   ar
    38    23    26    1
    39     3     4    1
@<TRIPOS>MOLECULE
*****
 36 39 0 0 0
SMALL
GASTEIGER

@<TRIPOS>ATOM
      1 O         140.8585  144.4471  159.0269 O.2     1  UNL1       -0.2733
      2 C         139.6176  143.9200  158.3693 C.2     1  UNL1        0.2426
      3 N         138.6548  143.0767  159.1513 N.am    1  UNL1       -0.3018
      4 H         137.8404  142.7307  158.7197 H       1  UNL1        0.1495
      5 C         138.9327  142.7604  160.5910 C.3     1  UNL1        0.1035
      6 C         139.8292  141.7974  161.3114 C.3     1  UNL1        0.0933
      7 N         139.3259  142.3130  162.6270 N.3     1  UNL1       -0.2711
      8 C         138.4294  143.2760  161.9066 C.3     1  UNL1        0.0933
      9 C         139.6039  141.9967  164.0667 C.3     1  UNL1        0.0578
     10 C         138.9259  140.8306  164.7228 C.3     1  UNL1        0.0190
     11 C         139.2039  140.5143  166.1625 C.3     1  UNL1        0.0383
     12 C         140.1599  141.3641  166.9460 C.3     1  UNL1        0.1526
     13 F         139.7665  140.3736  168.0016 F       1  UNL1       -0.2355
     14 C         140.8379  142.5302  166.2899 C.3     1  UNL1        0.0383
     15 C         140.5599  142.8465  164.8503 C.3     1  UNL1        0.0190
     16 C         140.9792  141.8699  168.0962 C.ar    1  UNL1        0.0070
     17 C         142.2886  141.2178  168.4283 C.ar    1  UNL1       -0.0017
     18 C         143.1080  141.7236  169.5784 C.ar    1  UNL1       -0.0002
     19 C         142.6179  142.8816  170.3964 C.ar    1  UNL1       -0.0000
     20 C         141.3087  143.5337  170.0643 C.ar    1  UNL1       -0.0002
     21 C         140.4892  143.0279  168.9141 C.ar    1  UNL1       -0.0017
     22 C         139.3396  144.2363  156.9296 C.3     1  UNL1        0.1759
     23 N         139.7879  145.5448  156.3490 N.am    1  UNL1       -0.2931
     24 C         138.9118  146.2712  155.3719 C.2     1  UNL1        0.2462
     25 O         137.5874  145.6892  154.9754 O.2     1  UNL1       -0.2701
     26 H         140.6572  145.9268  156.6093 H       1  UNL1        0.1502
     27 C         139.3601  147.5796  154.7913 C.ar    1  UNL1        0.0533
     28 C         140.2909  147.5987  153.6152 C.ar    1  UNL1        0.0045
     29 C         140.7391  148.9072  153.0347 C.ar    1  UNL1        0.0001
     30 C         140.2566  150.1965  153.6303 C.ar    1  UNL1        0.0039
     31 C         139.3258  150.1774  154.8064 C.ar    1  UNL1        0.0716
     32 C         138.8776  148.8690  155.3869 C.ar    1  UNL1        0.0084
     33 C         138.8433  151.4668  155.4020 C.3     1  UNL1        0.4186
     34 F         138.3608  152.7561  155.9976 F       1  UNL1       -0.1659
     35 F         139.2074  150.9711  156.7701 F       1  UNL1       -0.1659
     36 F         138.4792  151.9625  154.0339 F       1  UNL1       -0.1659
@<TRIPOS>BOND
     1     1     2    2
     2     2    22    1
     3    22    23    1
     4    23    24   am
     5    24    25    2
     6    24    27    1
     7    27    28   ar
     8    28    29   ar
     9    29    30   ar
    10    30    31   ar
    11    31    33    1
    12    33    34    1
    13    33    35    1
    14    33    36    1
    15    31    32   ar
    16     2     3   am
    17     3     5    1
    18     5     6    1
    19     6     7    1
    20     9     7    1
    21     9    10    1
    22    10    11    1
    23    11    12    1
    24    12    13    1
    25    12    16    1
    26    16    17   ar
    27    17    18   ar
    28    18    19   ar
    29    19    20   ar
    30    20    21   ar
    31    12    14    1
    32    14    15    1
    33     7     8    1
    34    32    27   ar
    35     8     5    1
    36    15     9    1
    37    21    16   ar
    38    23    26    1
    39     3     4    1
@<TRIPOS>MOLECULE
*****
 36 39 0 0 0
SMALL
GASTEIGER

@<TRIPOS>ATOM
      1 O         141.3576  145.3032  160.9274 O.2     1  UNL1       -0.2733
      2 C         141.4705  144.4269  162.1396 C.2     1  UNL1        0.2426
      3 N         142.4079  143.2560  162.1339 N.am    1  UNL1       -0.3018
      4 H         142.4820  142.6809  162.9295 H       1  UNL1        0.1495
      5 C         143.2325  142.9612  160.9160 C.3     1  UNL1        0.1035
      6 C         144.6621  142.5794  160.6700 C.3     1  UNL1        0.0933
      7 N         144.3987  142.5444  159.1937 N.3     1  UNL1       -0.2711
      8 C         142.9691  142.9261  159.4397 C.3     1  UNL1        0.0933
      9 C         145.2232  142.2496  157.9758 C.3     1  UNL1        0.0578
     10 C         144.7510  141.2340  156.9781 C.3     1  UNL1        0.0190
     11 C         145.5756  140.9392  155.7602 C.3     1  UNL1        0.0383
     12 C         146.8724  141.6601  155.5401 C.3     1  UNL1        0.1526
     13 F         146.8476  140.7899  154.3187 F       1  UNL1       -0.2355
     14 C         147.3447  142.6758  156.5378 C.3     1  UNL1        0.0383
     15 C         146.5201  142.9705  157.7557 C.3     1  UNL1        0.0190
     16 C         148.1607  142.0788  154.8958 C.ar    1  UNL1        0.0070
     17 C         149.4626  141.5221  155.3910 C.ar    1  UNL1       -0.0017
     18 C         150.7508  141.9408  154.7467 C.ar    1  UNL1       -0.0002
     19 C         150.7371  142.9162  153.6071 C.ar    1  UNL1       -0.0000
     20 C         149.4353  143.4728  153.1120 C.ar    1  UNL1       -0.0002
     21 C         148.1470  143.0542  153.7563 C.ar    1  UNL1       -0.0017
     22 C         140.6460  144.7216  163.3575 C.3     1  UNL1        0.1759
     23 N         139.9620  143.6045  164.0884 N.am    1  UNL1       -0.2931
     24 C         140.7173  142.7992  165.1038 C.2     1  UNL1        0.2462
     25 O         142.1567  143.1110  165.3882 O.2     1  UNL1       -0.2701
     26 H         139.0172  143.3999  163.9018 H       1  UNL1        0.1502
     27 C         140.0332  141.6821  165.8347 C.ar    1  UNL1        0.0533
     28 C         139.0653  140.7940  165.1107 C.ar    1  UNL1        0.0045
     29 C         138.3813  139.6770  165.8417 C.ar    1  UNL1        0.0001
     30 C         138.6652  139.4481  167.2967 C.ar    1  UNL1        0.0039
     31 C         139.6332  140.3362  168.0207 C.ar    1  UNL1        0.0716
     32 C         140.3172  141.4533  167.2897 C.ar    1  UNL1        0.0084
     33 C         139.9171  140.1073  169.4757 C.3     1  UNL1        0.4186
     34 F         140.2010  139.8785  170.9307 F       1  UNL1       -0.1659
     35 F         141.2312  139.4775  169.1202 F       1  UNL1       -0.1659
     36 F         138.6030  140.7372  169.8312 F       1  UNL1       -0.1659
@<TRIPOS>BOND
     1     1     2    2
     2     2    22    1
     3    22    23    1
     4    23    24   am
     5    24    25    2
     6    24    27    1
     7    27    28   ar
     8    28    29   ar
     9    29    30   ar
    10    30    31   ar
    11    31    33    1
    12    33    34    1
    13    33    35    1
    14    33    36    1
    15    31    32   ar
    16     2     3   am
    17     3     5    1
    18     5     6    1
    19     6     7    1
    20     9     7    1
    21     9    10    1
    22    10    11    1
    23    11    12    1
    24    12    13    1
    25    12    16    1
    26    16    17   ar
    27    17    18   ar
    28    18    19   ar
    29    19    20   ar
    30    20    21   ar
    31    12    14    1
    32    14    15    1
    33     7     8    1
    34    32    27   ar
    35     8     5    1
    36    15     9    1
    37    21    16   ar
    38    23    26    1
    39     3     4    1
@<TRIPOS>MOLECULE
*****
 36 39 0 0 0
SMALL
GASTEIGER

@<TRIPOS>ATOM
      1 O         138.3626  142.5772  157.8645 O.2     1  UNL1       -0.2733
      2 C         137.5266  141.3906  157.4865 C.2     1  UNL1        0.2426
      3 N         137.4709  140.1941  158.3893 N.am    1  UNL1       -0.3018
      4 H         136.9222  139.4153  158.1412 H       1  UNL1        0.1495
      5 C         138.2514  140.1842  159.6703 C.3     1  UNL1        0.1035
      6 C         138.5335  141.1885  160.7482 C.3     1  UNL1        0.0933
      7 N         139.3550  140.1702  161.4819 N.3     1  UNL1       -0.2711
      8 C         139.0728  139.1659  160.4040 C.3     1  UNL1        0.0933
      9 C         140.1354  140.1603  162.7628 C.3     1  UNL1        0.0578
     10 C         141.6244  140.3400  162.7354 C.3     1  UNL1        0.0190
     11 C         142.4047  140.3301  164.0164 C.3     1  UNL1        0.0383
     12 C         141.6962  140.1405  165.3248 C.3     1  UNL1        0.1526
     13 F         143.1095  140.2700  165.8103 F       1  UNL1       -0.2355
     14 C         140.2072  139.9609  165.3523 C.3     1  UNL1        0.0383
     15 C         139.4268  139.9708  164.0713 C.3     1  UNL1        0.0190
     16 C         141.4784  139.9960  166.8019 C.ar    1  UNL1        0.0070
     17 C         140.1270  140.2723  167.3913 C.ar    1  UNL1       -0.0017
     18 C         139.9093  140.1277  168.8684 C.ar    1  UNL1       -0.0002
     19 C         141.0430  139.7068  169.7560 C.ar    1  UNL1       -0.0000
     20 C         142.3942  139.4305  169.1666 C.ar    1  UNL1       -0.0002
     21 C         142.6121  139.5751  167.6894 C.ar    1  UNL1       -0.0017
     22 C         136.7462  141.4005  156.2055 C.3     1  UNL1        0.1759
     23 N         135.2489  141.4855  156.2401 N.am    1  UNL1       -0.2931
     24 C         134.4218  140.2663  155.9583 C.2     1  UNL1        0.2462
     25 O         135.0919  138.9621  155.6418 O.2     1  UNL1       -0.2701
     26 H         134.8091  142.3414  156.4478 H       1  UNL1        0.1502
     27 C         132.9246  140.3513  155.9928 C.ar    1  UNL1        0.0533
     28 C         132.2202  141.4688  155.2823 C.ar    1  UNL1        0.0045
     29 C         130.7230  141.5537  155.3169 C.ar    1  UNL1        0.0001
     30 C         129.9302  140.5211  156.0620 C.ar    1  UNL1        0.0039
     31 C         130.6346  139.4036  156.7726 C.ar    1  UNL1        0.0716
     32 C         132.1318  139.3187  156.7380 C.ar    1  UNL1        0.0084
     33 C         129.8418  138.3710  157.5177 C.3     1  UNL1        0.4186
     34 F         129.0491  137.3384  158.2629 F       1  UNL1       -0.1659
     35 F         129.5434  139.3750  158.5915 F       1  UNL1       -0.1659
     36 F         130.1402  137.3671  156.4439 F       1  UNL1       -0.1659
@<TRIPOS>BOND
     1     1     2    2
     2     2    22    1
     3    22    23    1
     4    23    24   am
     5    24    25    2
     6    24    27    1
     7    27    28   ar
     8    28    29   ar
     9    29    30   ar
    10    30    31   ar
    11    31    33    1
    12    33    34    1
    13    33    35    1
    14    33    36    1
    15    31    32   ar
    16     2     3   am
    17     3     5    1
    18     5     6    1
    19     6     7    1
    20     9     7    1
    21     9    10    1
    22    10    11    1
    23    11    12    1
    24    12    13    1
    25    12    16    1
    26    16    17   ar
    27    17    18   ar
    28    18    19   ar
    29    19    20   ar
    30    20    21   ar
    31    12    14    1
    32    14    15    1
    33     7     8    1
    34    32    27   ar
    35     8     5    1
    36    15     9    1
    37    21    16   ar
    38    23    26    1
    39     3     4    1
@<TRIPOS>MOLECULE
*****
 36 39 0 0 0
SMALL
GASTEIGER

@<TRIPOS>ATOM
      1 O         141.9785  140.4006  159.0884 O.2     1  UNL1       -0.2733
      2 C         142.9398  139.3316  158.6603 C.2     1  UNL1        0.2426
      3 N         143.6440  138.4998  159.6909 N.am    1  UNL1       -0.3018
      4 H         144.2749  137.7982  159.4099 H       1  UNL1        0.1495
      5 C         143.3869  138.7368  161.1496 C.3     1  UNL1        0.1035
      6 C         143.9675  139.6417  162.1956 C.3     1  UNL1        0.0933
      7 N         143.0233  139.0721  163.2125 N.3     1  UNL1       -0.2711
      8 C         142.4427  138.1672  162.1665 C.3     1  UNL1        0.0933
      9 C         142.7663  139.3092  164.6711 C.3     1  UNL1        0.0578
     10 C         143.4731  138.4797  165.7018 C.3     1  UNL1        0.0190
     11 C         143.2159  138.7168  167.1605 C.3     1  UNL1        0.0383
     12 C         142.2521  139.7835  167.5884 C.3     1  UNL1        0.1526
     13 F         142.6752  139.2614  168.9294 F       1  UNL1       -0.2355
     14 C         141.5453  140.6130  166.5578 C.3     1  UNL1        0.0383
     15 C         141.8023  140.3759  165.0991 C.3     1  UNL1        0.0190
     16 C         141.4351  140.6688  168.4821 C.ar    1  UNL1        0.0070
     17 C         141.8593  142.0873  168.7234 C.ar    1  UNL1       -0.0017
     18 C         141.0423  142.9726  169.6172 C.ar    1  UNL1       -0.0002
     19 C         139.8012  142.4395  170.2695 C.ar    1  UNL1       -0.0000
     20 C         139.3771  141.0212  170.0283 C.ar    1  UNL1       -0.0002
     21 C         140.1940  140.1357  169.1345 C.ar    1  UNL1       -0.0017
     22 C         143.1970  139.0945  157.2017 C.3     1  UNL1        0.1759
     23 N         143.4717  137.7062  156.7045 N.am    1  UNL1       -0.2931
     24 C         142.3331  136.7703  156.4260 C.2     1  UNL1        0.2462
     25 O         140.9198  137.2226  156.6446 O.2     1  UNL1       -0.2701
     26 H         144.3994  137.4093  156.5610 H       1  UNL1        0.1502
     27 C         142.6079  135.3819  155.9288 C.ar    1  UNL1        0.0533
     28 C         143.7016  134.5653  156.5508 C.ar    1  UNL1        0.0045
     29 C         143.9763  133.1771  156.0536 C.ar    1  UNL1        0.0001
     30 C         143.1573  132.6054  154.9344 C.ar    1  UNL1        0.0039
     31 C         142.0636  133.4221  154.3124 C.ar    1  UNL1        0.0716
     32 C         141.7889  134.8103  154.8096 C.ar    1  UNL1        0.0084
     33 C         141.2446  132.8505  153.1932 C.3     1  UNL1        0.4186
     34 F         140.4257  132.2789  152.0741 F       1  UNL1       -0.1659
     35 F         140.5821  134.1820  152.9980 F       1  UNL1       -0.1659
     36 F         141.9072  131.5190  153.3885 F       1  UNL1       -0.1659
@<TRIPOS>BOND
     1     1     2    2
     2     2    22    1
     3    22    23    1
     4    23    24   am
     5    24    25    2
     6    24    27    1
     7    27    28   ar
     8    28    29   ar
     9    29    30   ar
    10    30    31   ar
    11    31    33    1
    12    33    34    1
    13    33    35    1
    14    33    36    1
    15    31    32   ar
    16     2     3   am
    17     3     5    1
    18     5     6    1
    19     6     7    1
    20     9     7    1
    21     9    10    1
    22    10    11    1
    23    11    12    1
    24    12    13    1
    25    12    16    1
    26    16    17   ar
    27    17    18   ar
    28    18    19   ar
    29    19    20   ar
    30    20    21   ar
    31    12    14    1
    32    14    15    1
    33     7     8    1
    34    32    27   ar
    35     8     5    1
    36    15     9    1
    37    21    16   ar
    38    23    26    1
    39     3     4    1
