@<TRIPOS>MOLECULE
*****
 35 39 0 0 0
SMALL
GASTEIGER

@<TRIPOS>ATOM
      1 N         142.7104  139.5559  166.2402 N.3     1  UNL1       -0.2689
      2 C         142.0069  138.5117  165.4250 C.3     1  UNL1        0.0724
      3 C         142.1107  138.5324  163.9288 C.3     1  UNL1        0.0175
      4 C         142.9182  139.5974  163.2477 C.3     1  UNL1        0.0060
      5 C         143.6218  140.6416  164.0629 C.3     1  UNL1        0.0175
      6 C         143.5179  140.6209  165.5591 C.3     1  UNL1        0.0724
      7 C         142.2146  138.5531  162.4325 C.3     1  UNL1        0.0217
      8 C         142.3185  138.5738  160.9363 C.3     1  UNL1        0.0938
      9 N         143.1260  139.6388  160.2552 N.am    1  UNL1       -0.2748
     10 C         143.2298  139.6595  158.7589 C.2     1  UNL1        0.2668
     11 O         144.0373  140.7244  158.0778 O.2     1  UNL1       -0.2683
     12 C         143.8295  140.6830  161.0704 C.3     1  UNL1        0.0938
     13 C         143.7257  140.6623  162.5667 C.3     1  UNL1        0.0217
     14 C         142.5262  138.6152  157.9438 C.ar    1  UNL1        0.1347
     15 C         141.1288  138.8598  157.4565 C.ar    1  UNL1        0.0238
     16 C         140.4252  137.8155  156.6414 C.ar    1  UNL1        0.0033
     17 C         141.1191  136.5267  156.3134 C.ar    1  UNL1        0.0207
     18 C         142.5165  136.2821  156.8006 C.ar    1  UNL1        0.0990
     19 N         143.2201  137.3265  157.6158 N.ar    1  UNL1       -0.2393
     20 C         142.6066  139.5352  167.7365 C.3     1  UNL1        0.1022
     21 C         140.8032  141.2607  168.4578 C.ar    1  UNL1        0.1427
     22 C         140.4209  142.5067  169.2004 C.ar    1  UNL1        0.0372
     23 C         141.4597  143.2731  169.9642 C.ar    1  UNL1        0.0031
     24 C         142.8808  142.7935  169.9855 C.ar    1  UNL1       -0.0001
     25 C         143.2631  141.5476  169.2430 C.ar    1  UNL1        0.0001
     26 C         142.2243  140.7811  168.4791 C.ar    1  UNL1        0.0284
     27 O         139.7644  140.4944  167.6940 O.3     1  UNL1       -0.4507
     28 C         138.5048  140.0198  165.4718 C.ar    1  UNL1        0.1730
     29 C         138.2087  140.3753  164.0449 C.ar    1  UNL1        0.0401
     30 C         138.8763  141.5608  163.4133 C.ar    1  UNL1        0.0033
     31 C         139.8399  142.3909  164.2086 C.ar    1  UNL1        0.0033
     32 C         140.1359  142.0354  165.6355 C.ar    1  UNL1        0.0406
     33 C         139.4683  140.8498  166.2671 C.ar    1  UNL1        0.1789
     34 C         138.4132  137.4619  165.9175 C.3     1  UNL1        0.2526
     35 O         137.8371  138.8343  166.1033 O.3     1  UNL1       -0.4684
@<TRIPOS>BOND
     1    34    35    1
     2    35    28    1
     3    28    29   ar
     4    29    30   ar
     5    30    31   ar
     6    31    32   ar
     7    32    33   ar
     8    33    27    1
     9    27    21    1
    10    21    22   ar
    11    22    23   ar
    12    23    24   ar
    13    24    25   ar
    14    25    26   ar
    15    26    20    1
    16    20     1    1
    17     1     2    1
    18     2     3    1
    19     3     4    1
    20     4     5    1
    21     5     6    1
    22     4     7    1
    23     7     8    1
    24     8     9    1
    25     9    10   am
    26    10    11    2
    27    10    14    1
    28    14    15   ar
    29    15    16   ar
    30    16    17   ar
    31    17    18   ar
    32    18    19   ar
    33     9    12    1
    34    12    13    1
    35    33    28   ar
    36    26    21   ar
    37     6     1    1
    38    19    14   ar
    39    13     4    1
@<TRIPOS>MOLECULE
*****
 35 39 0 0 0
SMALL
GASTEIGER

@<TRIPOS>ATOM
      1 N         138.9372  141.6314  160.0712 N.3     1  UNL1       -0.2689
      2 C         138.3714  140.3728  159.4833 C.3     1  UNL1        0.0724
      3 C         139.2494  139.4594  158.6803 C.3     1  UNL1        0.0175
      4 C         140.6932  139.8047  158.4652 C.3     1  UNL1        0.0060
      5 C         141.2590  141.0634  159.0531 C.3     1  UNL1        0.0175
      6 C         140.3810  141.9767  159.8561 C.3     1  UNL1        0.0724
      7 C         140.1274  138.5460  157.8772 C.3     1  UNL1        0.0217
      8 C         141.0054  137.6327  157.0742 C.3     1  UNL1        0.0938
      9 N         142.4492  137.9780  156.8591 N.am    1  UNL1       -0.2748
     10 C         143.3272  137.0645  156.0560 C.2     1  UNL1        0.2668
     11 O         144.7710  137.4098  155.8409 O.2     1  UNL1       -0.2683
     12 C         143.0150  139.2366  157.4470 C.3     1  UNL1        0.0938
     13 C         142.1370  140.1500  158.2500 C.3     1  UNL1        0.0217
     14 C         142.7614  135.8059  155.4681 C.ar    1  UNL1        0.1347
     15 C         142.4052  135.7523  154.0120 C.ar    1  UNL1        0.0238
     16 C         141.8395  134.4937  153.4241 C.ar    1  UNL1        0.0033
     17 C         141.6298  133.2885  154.2923 C.ar    1  UNL1        0.0207
     18 C         141.9860  133.3421  155.7484 C.ar    1  UNL1        0.0990
     19 N         142.5518  134.6009  156.3363 N.ar    1  UNL1       -0.2393
     20 C         138.0592  142.5448  160.8743 C.3     1  UNL1        0.1022
     21 C         138.4301  141.9731  163.3814 C.ar    1  UNL1        0.1427
     22 C         138.8447  142.3902  164.7613 C.ar    1  UNL1        0.0372
     23 C         139.3030  143.7959  165.0141 C.ar    1  UNL1        0.0031
     24 C         139.3467  144.7846  163.8869 C.ar    1  UNL1       -0.0001
     25 C         138.9321  144.3676  162.5070 C.ar    1  UNL1        0.0001
     26 C         138.4738  142.9618  162.2542 C.ar    1  UNL1        0.0284
     27 O         137.9718  140.5674  163.1287 O.3     1  UNL1       -0.4507
     28 C         138.7873  138.7012  164.7419 C.ar    1  UNL1        0.1730
     29 C         139.7009  137.5495  165.0398 C.ar    1  UNL1        0.0401
     30 C         140.7127  137.1122  164.0225 C.ar    1  UNL1        0.0033
     31 C         140.8109  137.8266  162.7071 C.ar    1  UNL1        0.0033
     32 C         139.8973  138.9783  162.4092 C.ar    1  UNL1        0.0406
     33 C         138.8854  139.4156  163.4266 C.ar    1  UNL1        0.1789
     34 C         137.5986  138.3550  167.0260 C.3     1  UNL1        0.2526
     35 O         137.7755  139.1386  165.7593 O.3     1  UNL1       -0.4684
@<TRIPOS>BOND
     1    34    35    1
     2    35    28    1
     3    28    29   ar
     4    29    30   ar
     5    30    31   ar
     6    31    32   ar
     7    32    33   ar
     8    33    27    1
     9    27    21    1
    10    21    22   ar
    11    22    23   ar
    12    23    24   ar
    13    24    25   ar
    14    25    26   ar
    15    26    20    1
    16    20     1    1
    17     1     2    1
    18     2     3    1
    19     3     4    1
    20     4     5    1
    21     5     6    1
    22     4     7    1
    23     7     8    1
    24     8     9    1
    25     9    10   am
    26    10    11    2
    27    10    14    1
    28    14    15   ar
    29    15    16   ar
    30    16    17   ar
    31    17    18   ar
    32    18    19   ar
    33     9    12    1
    34    12    13    1
    35    33    28   ar
    36    26    21   ar
    37     6     1    1
    38    19    14   ar
    39    13     4    1
@<TRIPOS>MOLECULE
*****
 35 39 0 0 0
SMALL
GASTEIGER

@<TRIPOS>ATOM
      1 N         141.9985  140.5666  160.8365 N.3     1  UNL1       -0.2689
      2 C         141.2562  141.4601  161.7855 C.3     1  UNL1        0.0724
      3 C         141.3465  141.2237  163.2640 C.3     1  UNL1        0.0175
      4 C         142.1790  140.0939  163.7935 C.3     1  UNL1        0.0060
      5 C         142.9213  139.2004  162.8445 C.3     1  UNL1        0.0175
      6 C         142.8310  139.4367  161.3660 C.3     1  UNL1        0.0724
      7 C         141.4367  140.9874  164.7426 C.3     1  UNL1        0.0217
      8 C         141.5269  140.7510  166.2211 C.3     1  UNL1        0.0938
      9 N         142.3595  139.6212  166.7505 N.am    1  UNL1       -0.2748
     10 C         142.4497  139.3848  168.2291 C.2     1  UNL1        0.2668
     11 O         143.2822  138.2550  168.7586 O.2     1  UNL1       -0.2683
     12 C         143.1017  138.7277  165.8015 C.3     1  UNL1        0.0938
     13 C         143.0115  138.9640  164.3230 C.3     1  UNL1        0.0217
     14 C         141.7074  140.2783  169.1781 C.ar    1  UNL1        0.1347
     15 C         140.2097  140.2260  169.2413 C.ar    1  UNL1        0.0238
     16 C         139.4674  141.1195  170.1903 C.ar    1  UNL1        0.0033
     17 C         140.2229  142.0654  171.0762 C.ar    1  UNL1        0.0207
     18 C         141.7206  142.1177  171.0129 C.ar    1  UNL1        0.0990
     19 N         142.4629  141.2242  170.0639 N.ar    1  UNL1       -0.2393
     20 C         141.9083  140.8029  159.3580 C.3     1  UNL1        0.1022
     21 C         143.9653  142.3041  158.8432 C.ar    1  UNL1        0.1427
     22 C         145.2090  142.5761  158.0499 C.ar    1  UNL1        0.0372
     23 C         145.6392  141.6191  156.9780 C.ar    1  UNL1        0.0031
     24 C         144.8258  140.3899  156.6995 C.ar    1  UNL1       -0.0001
     25 C         143.5822  140.1179  157.4928 C.ar    1  UNL1        0.0001
     26 C         143.1519  141.0750  158.5647 C.ar    1  UNL1        0.0284
     27 O         143.5351  143.2612  159.9151 O.3     1  UNL1       -0.4507
     28 C         143.5331  143.9874  162.4096 C.ar    1  UNL1        0.1730
     29 C         144.0392  143.8201  163.8117 C.ar    1  UNL1        0.0401
     30 C         145.0534  142.7593  164.1214 C.ar    1  UNL1        0.0033
     31 C         145.5616  141.8657  163.0290 C.ar    1  UNL1        0.0033
     32 C         145.0555  142.0330  161.6269 C.ar    1  UNL1        0.0406
     33 C         144.0412  143.0939  161.3172 C.ar    1  UNL1        0.1789
     34 C         141.2789  145.1672  162.9354 C.3     1  UNL1        0.2526
     35 O         142.5189  145.0483  162.0999 O.3     1  UNL1       -0.4684
@<TRIPOS>BOND
     1    34    35    1
     2    35    28    1
     3    28    29   ar
     4    29    30   ar
     5    30    31   ar
     6    31    32   ar
     7    32    33   ar
     8    33    27    1
     9    27    21    1
    10    21    22   ar
    11    22    23   ar
    12    23    24   ar
    13    24    25   ar
    14    25    26   ar
    15    26    20    1
    16    20     1    1
    17     1     2    1
    18     2     3    1
    19     3     4    1
    20     4     5    1
    21     5     6    1
    22     4     7    1
    23     7     8    1
    24     8     9    1
    25     9    10   am
    26    10    11    2
    27    10    14    1
    28    14    15   ar
    29    15    16   ar
    30    16    17   ar
    31    17    18   ar
    32    18    19   ar
    33     9    12    1
    34    12    13    1
    35    33    28   ar
    36    26    21   ar
    37     6     1    1
    38    19    14   ar
    39    13     4    1
@<TRIPOS>MOLECULE
*****
 35 39 0 0 0
SMALL
GASTEIGER

@<TRIPOS>ATOM
      1 N         142.4476  140.3395  160.5412 N.3     1  UNL1       -0.2689
      2 C         141.7913  141.4104  161.3611 C.3     1  UNL1        0.0724
      3 C         141.7894  141.3136  162.8580 C.3     1  UNL1        0.0175
      4 C         142.4438  140.1459  163.5348 C.3     1  UNL1        0.0060
      5 C         143.1002  139.0750  162.7149 C.3     1  UNL1        0.0175
      6 C         143.1021  139.1718  161.2180 C.3     1  UNL1        0.0724
      7 C         141.7875  141.2168  164.3549 C.3     1  UNL1        0.0217
      8 C         141.7856  141.1200  165.8517 C.3     1  UNL1        0.0938
      9 N         142.4400  139.9522  166.5286 N.am    1  UNL1       -0.2748
     10 C         142.4381  139.8554  168.0255 C.2     1  UNL1        0.2668
     11 O         143.0925  138.6877  168.7024 O.2     1  UNL1       -0.2683
     12 C         143.0963  138.8813  165.7086 C.3     1  UNL1        0.0938
     13 C         143.0982  138.9781  164.2117 C.3     1  UNL1        0.0217
     14 C         141.7817  140.9263  168.8455 C.ar    1  UNL1        0.1347
     15 C         142.5647  142.1347  169.2661 C.ar    1  UNL1        0.0238
     16 C         141.9083  143.2055  170.0861 C.ar    1  UNL1        0.0033
     17 C         140.4690  143.0681  170.4854 C.ar    1  UNL1        0.0207
     18 C         139.6860  141.8598  170.0648 C.ar    1  UNL1        0.0990
     19 N         140.3424  140.7889  169.2448 N.ar    1  UNL1       -0.2393
     20 C         142.4496  140.4363  159.0442 C.3     1  UNL1        0.1022
     21 C         140.4294  139.0142  158.2403 C.ar    1  UNL1        0.1427
     22 C         139.8795  137.8886  157.4152 C.ar    1  UNL1        0.0372
     23 C         140.7998  137.0597  156.5690 C.ar    1  UNL1        0.0031
     24 C         142.2700  137.3564  156.5479 C.ar    1  UNL1       -0.0001
     25 C         142.8199  138.4819  157.3730 C.ar    1  UNL1        0.0001
     26 C         141.8996  139.3108  158.2192 C.ar    1  UNL1        0.0284
     27 O         139.5091  139.8430  159.0864 O.3     1  UNL1       -0.4507
     28 C         138.4285  140.3421  161.3957 C.ar    1  UNL1        0.1730
     29 C         138.1387  139.9341  162.8098 C.ar    1  UNL1        0.0401
     30 C         138.6397  138.6189  163.3286 C.ar    1  UNL1        0.0033
     31 C         139.4306  137.7117  162.4333 C.ar    1  UNL1        0.0033
     32 C         139.7204  138.1197  161.0192 C.ar    1  UNL1        0.0406
     33 C         139.2193  139.4350  160.5005 C.ar    1  UNL1        0.1789
     34 C         138.2558  142.9259  161.6071 C.3     1  UNL1        0.2526
     35 O         137.9274  141.6574  160.8770 O.3     1  UNL1       -0.4684
@<TRIPOS>BOND
     1    34    35    1
     2    35    28    1
     3    28    29   ar
     4    29    30   ar
     5    30    31   ar
     6    31    32   ar
     7    32    33   ar
     8    33    27    1
     9    27    21    1
    10    21    22   ar
    11    22    23   ar
    12    23    24   ar
    13    24    25   ar
    14    25    26   ar
    15    26    20    1
    16    20     1    1
    17     1     2    1
    18     2     3    1
    19     3     4    1
    20     4     5    1
    21     5     6    1
    22     4     7    1
    23     7     8    1
    24     8     9    1
    25     9    10   am
    26    10    11    2
    27    10    14    1
    28    14    15   ar
    29    15    16   ar
    30    16    17   ar
    31    17    18   ar
    32    18    19   ar
    33     9    12    1
    34    12    13    1
    35    33    28   ar
    36    26    21   ar
    37     6     1    1
    38    19    14   ar
    39    13     4    1
@<TRIPOS>MOLECULE
*****
 35 39 0 0 0
SMALL
GASTEIGER

@<TRIPOS>ATOM
      1 N         143.1814  141.7547  166.3103 N.3     1  UNL1       -0.2689
      2 C         143.2699  142.6266  165.0930 C.3     1  UNL1        0.0724
      3 C         143.2443  142.0103  163.7257 C.3     1  UNL1        0.0175
      4 C         143.1301  140.5222  163.5757 C.3     1  UNL1        0.0060
      5 C         143.0416  139.6503  164.7930 C.3     1  UNL1        0.0175
      6 C         143.0673  140.2666  166.1603 C.3     1  UNL1        0.0724
      7 C         143.2186  141.3941  162.3583 C.3     1  UNL1        0.0217
      8 C         143.1930  140.7779  160.9910 C.3     1  UNL1        0.0938
      9 N         143.0788  139.2898  160.8410 N.am    1  UNL1       -0.2748
     10 C         143.0532  138.6736  159.4736 C.2     1  UNL1        0.2668
     11 O         142.9390  137.1855  159.3236 O.2     1  UNL1       -0.2683
     12 C         142.9903  138.4179  162.0583 C.3     1  UNL1        0.0938
     13 C         143.0160  139.0341  163.4257 C.3     1  UNL1        0.0217
     14 C         143.1417  139.5455  158.2563 C.ar    1  UNL1        0.1347
     15 C         141.8892  140.0315  157.5892 C.ar    1  UNL1        0.0238
     16 C         141.9777  140.9034  156.3718 C.ar    1  UNL1        0.0033
     17 C         143.3187  141.2894  155.8216 C.ar    1  UNL1        0.0207
     18 C         144.5712  140.8033  156.4887 C.ar    1  UNL1        0.0990
     19 N         144.4827  139.9314  157.7061 N.ar    1  UNL1       -0.2393
     20 C         143.2070  142.3709  167.6777 C.3     1  UNL1        0.1022
     21 C         140.8412  141.9117  168.6482 C.ar    1  UNL1        0.1427
     22 C         139.9679  141.3601  169.7360 C.ar    1  UNL1        0.0372
     23 C         140.5872  140.7161  170.9408 C.ar    1  UNL1        0.0031
     24 C         142.0797  140.6237  171.0580 C.ar    1  UNL1       -0.0001
     25 C         142.9530  141.1753  169.9704 C.ar    1  UNL1        0.0001
     26 C         142.3338  141.8193  168.7654 C.ar    1  UNL1        0.0284
     27 O         140.2219  142.5556  167.4433 O.3     1  UNL1       -0.4507
     28 C         139.6563  142.3369  164.9170 C.ar    1  UNL1        0.1730
     29 C         139.2410  141.4953  163.7469 C.ar    1  UNL1        0.0401
     30 C         138.9763  140.0306  163.9329 C.ar    1  UNL1        0.0033
     31 C         139.1268  139.4076  165.2891 C.ar    1  UNL1        0.0033
     32 C         139.5420  140.2492  166.4593 C.ar    1  UNL1        0.0406
     33 C         139.8067  141.7140  166.2732 C.ar    1  UNL1        0.1789
     34 C         138.8588  144.8049  165.0703 C.3     1  UNL1        0.2526
     35 O         139.9210  143.8017  164.7309 O.3     1  UNL1       -0.4684
@<TRIPOS>BOND
     1    34    35    1
     2    35    28    1
     3    28    29   ar
     4    29    30   ar
     5    30    31   ar
     6    31    32   ar
     7    32    33   ar
     8    33    27    1
     9    27    21    1
    10    21    22   ar
    11    22    23   ar
    12    23    24   ar
    13    24    25   ar
    14    25    26   ar
    15    26    20    1
    16    20     1    1
    17     1     2    1
    18     2     3    1
    19     3     4    1
    20     4     5    1
    21     5     6    1
    22     4     7    1
    23     7     8    1
    24     8     9    1
    25     9    10   am
    26    10    11    2
    27    10    14    1
    28    14    15   ar
    29    15    16   ar
    30    16    17   ar
    31    17    18   ar
    32    18    19   ar
    33     9    12    1
    34    12    13    1
    35    33    28   ar
    36    26    21   ar
    37     6     1    1
    38    19    14   ar
    39    13     4    1
@<TRIPOS>MOLECULE
*****
 35 39 0 0 0
SMALL
GASTEIGER

@<TRIPOS>ATOM
      1 N         143.0409  142.4961  162.4437 N.3     1  UNL1       -0.2689
      2 C         142.4583  141.1747  162.0380 C.3     1  UNL1        0.0724
      3 C         142.7588  140.6070  160.6826 C.3     1  UNL1        0.0175
      4 C         143.6418  141.3607  159.7327 C.3     1  UNL1        0.0060
      5 C         144.2244  142.6821  160.1383 C.3     1  UNL1        0.0175
      6 C         143.9239  143.2498  161.4938 C.3     1  UNL1        0.0724
      7 C         143.0593  140.0393  159.3270 C.3     1  UNL1        0.0217
      8 C         143.3598  139.4716  157.9715 C.3     1  UNL1        0.0938
      9 N         144.2428  140.2252  157.0217 N.am    1  UNL1       -0.2748
     10 C         144.5433  139.6575  155.6661 C.2     1  UNL1        0.2668
     11 O         145.4263  140.4112  154.7163 O.2     1  UNL1       -0.2683
     12 C         144.8254  141.5466  157.4273 C.3     1  UNL1        0.0938
     13 C         144.5249  142.1144  158.7829 C.3     1  UNL1        0.0217
     14 C         143.9608  138.3361  155.2605 C.ar    1  UNL1        0.1347
     15 C         142.7517  138.2899  154.3739 C.ar    1  UNL1        0.0238
     16 C         142.1692  136.9685  153.9682 C.ar    1  UNL1        0.0033
     17 C         142.7957  135.6933  154.4492 C.ar    1  UNL1        0.0207
     18 C         144.0047  135.7395  155.3359 C.ar    1  UNL1        0.0990
     19 N         144.5872  137.0610  155.7415 N.ar    1  UNL1       -0.2393
     20 C         142.7404  143.0638  163.7992 C.3     1  UNL1        0.1022
     21 C         140.7304  143.3266  165.4243 C.ar    1  UNL1        0.1427
     22 C         139.3646  143.8697  165.7240 C.ar    1  UNL1        0.0372
     23 C         138.6432  144.6929  164.6985 C.ar    1  UNL1        0.0031
     24 C         139.2874  144.9732  163.3732 C.ar    1  UNL1       -0.0001
     25 C         140.6532  144.4301  163.0735 C.ar    1  UNL1        0.0001
     26 C         141.3747  143.6068  164.0990 C.ar    1  UNL1        0.0284
     27 O         141.4518  142.5034  166.4498 O.3     1  UNL1       -0.4507
     28 C         139.9744  140.6168  167.4536 C.ar    1  UNL1        0.1730
     29 C         139.2213  140.0344  168.6129 C.ar    1  UNL1        0.0401
     30 C         139.1928  140.7561  169.9274 C.ar    1  UNL1        0.0033
     31 C         139.9173  142.0604  170.0829 C.ar    1  UNL1        0.0033
     32 C         140.6703  142.6428  168.9237 C.ar    1  UNL1        0.0406
     33 C         140.6988  141.9209  167.6090 C.ar    1  UNL1        0.1789
     34 C         138.7236  139.6248  165.4038 C.3     1  UNL1        0.2526
     35 O         140.0029  139.8949  166.1390 O.3     1  UNL1       -0.4684
@<TRIPOS>BOND
     1    34    35    1
     2    35    28    1
     3    28    29   ar
     4    29    30   ar
     5    30    31   ar
     6    31    32   ar
     7    32    33   ar
     8    33    27    1
     9    27    21    1
    10    21    22   ar
    11    22    23   ar
    12    23    24   ar
    13    24    25   ar
    14    25    26   ar
    15    26    20    1
    16    20     1    1
    17     1     2    1
    18     2     3    1
    19     3     4    1
    20     4     5    1
    21     5     6    1
    22     4     7    1
    23     7     8    1
    24     8     9    1
    25     9    10   am
    26    10    11    2
    27    10    14    1
    28    14    15   ar
    29    15    16   ar
    30    16    17   ar
    31    17    18   ar
    32    18    19   ar
    33     9    12    1
    34    12    13    1
    35    33    28   ar
    36    26    21   ar
    37     6     1    1
    38    19    14   ar
    39    13     4    1
@<TRIPOS>MOLECULE
*****
 35 39 0 0 0
SMALL
GASTEIGER

@<TRIPOS>ATOM
      1 N         139.5833  138.7849  161.3413 N.3     1  UNL1       -0.2689
      2 C         140.6099  139.7181  161.9115 C.3     1  UNL1        0.0724
      3 C         140.6209  140.0128  163.3822 C.3     1  UNL1        0.0175
      4 C         139.6054  139.3742  164.2827 C.3     1  UNL1        0.0060
      5 C         138.5788  138.4410  163.7125 C.3     1  UNL1        0.0175
      6 C         138.5678  138.1463  162.2418 C.3     1  UNL1        0.0724
      7 C         140.6320  140.3075  164.8530 C.3     1  UNL1        0.0217
      8 C         140.6430  140.6022  166.3237 C.3     1  UNL1        0.0938
      9 N         139.6275  139.9636  167.2242 N.am    1  UNL1       -0.2748
     10 C         139.6385  140.2583  168.6950 C.2     1  UNL1        0.2668
     11 O         138.6230  139.6197  169.5955 O.2     1  UNL1       -0.2683
     12 C         138.6009  139.0304  166.6540 C.3     1  UNL1        0.0938
     13 C         138.5898  138.7357  165.1832 C.3     1  UNL1        0.0217
     14 C         140.6651  141.1916  169.2652 C.ar    1  UNL1        0.1347
     15 C         140.3261  142.6363  169.4838 C.ar    1  UNL1        0.0238
     16 C         141.3527  143.5695  170.0540 C.ar    1  UNL1        0.0033
     17 C         142.7183  143.0581  170.4056 C.ar    1  UNL1        0.0207
     18 C         143.0573  141.6133  170.1870 C.ar    1  UNL1        0.0990
     19 N         142.0306  140.6800  169.6168 N.ar    1  UNL1       -0.2393
     20 C         139.5723  138.4902  159.8706 C.3     1  UNL1        0.1022
     21 C         140.4555  140.5354  158.5338 C.ar    1  UNL1        0.1427
     22 C         141.4866  141.1542  157.6371 C.ar    1  UNL1        0.0372
     23 C         142.6653  140.3467  157.1805 C.ar    1  UNL1        0.0031
     24 C         142.8130  138.9203  157.6205 C.ar    1  UNL1       -0.0001
     25 C         141.7820  138.3015  158.5172 C.ar    1  UNL1        0.0001
     26 C         140.6032  139.1090  158.9739 C.ar    1  UNL1        0.0284
     27 O         139.2768  141.3429  158.9905 O.3     1  UNL1       -0.4507
     28 C         138.7064  142.7376  161.1069 C.ar    1  UNL1        0.1730
     29 C         138.9160  143.9576  161.9541 C.ar    1  UNL1        0.0401
     30 C         139.9056  145.0028  161.5321 C.ar    1  UNL1        0.0033
     31 C         140.6857  144.8281  160.2628 C.ar    1  UNL1        0.0033
     32 C         140.4761  143.6082  159.4156 C.ar    1  UNL1        0.0406
     33 C         139.4864  142.5629  159.8377 C.ar    1  UNL1        0.1789
     34 C         137.2170  141.6602  162.9429 C.3     1  UNL1        0.2526
     35 O         137.7167  141.6924  161.5290 O.3     1  UNL1       -0.4684
@<TRIPOS>BOND
     1    34    35    1
     2    35    28    1
     3    28    29   ar
     4    29    30   ar
     5    30    31   ar
     6    31    32   ar
     7    32    33   ar
     8    33    27    1
     9    27    21    1
    10    21    22   ar
    11    22    23   ar
    12    23    24   ar
    13    24    25   ar
    14    25    26   ar
    15    26    20    1
    16    20     1    1
    17     1     2    1
    18     2     3    1
    19     3     4    1
    20     4     5    1
    21     5     6    1
    22     4     7    1
    23     7     8    1
    24     8     9    1
    25     9    10   am
    26    10    11    2
    27    10    14    1
    28    14    15   ar
    29    15    16   ar
    30    16    17   ar
    31    17    18   ar
    32    18    19   ar
    33     9    12    1
    34    12    13    1
    35    33    28   ar
    36    26    21   ar
    37     6     1    1
    38    19    14   ar
    39    13     4    1
@<TRIPOS>MOLECULE
*****
 35 39 0 0 0
SMALL
GASTEIGER

@<TRIPOS>ATOM
      1 N         139.9964  140.7537  160.5127 N.3     1  UNL1       -0.2689
      2 C         140.8424  141.6975  161.3149 C.3     1  UNL1        0.0724
      3 C         140.8111  141.6436  162.8136 C.3     1  UNL1        0.0175
      4 C         139.9338  140.6459  163.5100 C.3     1  UNL1        0.0060
      5 C         139.0878  139.7022  162.7078 C.3     1  UNL1        0.0175
      6 C         139.1191  139.7561  161.2091 C.3     1  UNL1        0.0724
      7 C         140.7798  141.5897  164.3123 C.3     1  UNL1        0.0217
      8 C         140.7485  141.5358  165.8110 C.3     1  UNL1        0.0938
      9 N         139.8712  140.5382  166.5074 N.am    1  UNL1       -0.2748
     10 C         139.8399  140.4843  168.0062 C.2     1  UNL1        0.2668
     11 O         138.9626  139.4867  168.7027 O.2     1  UNL1       -0.2683
     12 C         139.0252  139.5944  165.7052 C.3     1  UNL1        0.0938
     13 C         139.0565  139.6483  164.2065 C.3     1  UNL1        0.0217
     14 C         140.6859  141.4281  168.8084 C.ar    1  UNL1        0.1347
     15 C         140.1612  142.7873  169.1650 C.ar    1  UNL1        0.0238
     16 C         141.0071  143.7311  169.9672 C.ar    1  UNL1        0.0033
     17 C         142.3779  143.3157  170.4129 C.ar    1  UNL1        0.0207
     18 C         142.9026  141.9564  170.0563 C.ar    1  UNL1        0.0990
     19 N         142.0565  141.0126  169.2540 N.ar    1  UNL1       -0.2393
     20 C         140.0277  140.8076  159.0139 C.3     1  UNL1        0.1022
     21 C         141.8642  139.1447  158.2318 C.ar    1  UNL1        0.1427
     22 C         142.2703  137.9331  157.4461 C.ar    1  UNL1        0.0372
     23 C         141.2460  137.1731  156.6567 C.ar    1  UNL1        0.0031
     24 C         139.8156  137.6246  156.6531 C.ar    1  UNL1       -0.0001
     25 C         139.4094  138.8360  157.4388 C.ar    1  UNL1        0.0001
     26 C         140.4338  139.5961  158.2282 C.ar    1  UNL1        0.0284
     27 O         142.8886  139.9047  159.0211 O.3     1  UNL1       -0.4507
     28 C         144.0168  140.4310  161.3015 C.ar    1  UNL1        0.1730
     29 C         144.2686  140.0801  162.7380 C.ar    1  UNL1        0.0401
     30 C         143.6438  138.8519  163.3306 C.ar    1  UNL1        0.0033
     31 C         142.7673  137.9746  162.4867 C.ar    1  UNL1        0.0033
     32 C         142.5155  138.3255  161.0502 C.ar    1  UNL1        0.0406
     33 C         143.1403  139.5538  160.4576 C.ar    1  UNL1        0.1789
     34 C         144.3708  143.0048  161.3137 C.3     1  UNL1        0.2526
     35 O         144.6417  141.6592  160.7089 O.3     1  UNL1       -0.4684
@<TRIPOS>BOND
     1    34    35    1
     2    35    28    1
     3    28    29   ar
     4    29    30   ar
     5    30    31   ar
     6    31    32   ar
     7    32    33   ar
     8    33    27    1
     9    27    21    1
    10    21    22   ar
    11    22    23   ar
    12    23    24   ar
    13    24    25   ar
    14    25    26   ar
    15    26    20    1
    16    20     1    1
    17     1     2    1
    18     2     3    1
    19     3     4    1
    20     4     5    1
    21     5     6    1
    22     4     7    1
    23     7     8    1
    24     8     9    1
    25     9    10   am
    26    10    11    2
    27    10    14    1
    28    14    15   ar
    29    15    16   ar
    30    16    17   ar
    31    17    18   ar
    32    18    19   ar
    33     9    12    1
    34    12    13    1
    35    33    28   ar
    36    26    21   ar
    37     6     1    1
    38    19    14   ar
    39    13     4    1
@<TRIPOS>MOLECULE
*****
 35 39 0 0 0
SMALL
GASTEIGER

@<TRIPOS>ATOM
      1 N         140.0405  141.0701  161.9912 N.3     1  UNL1       -0.2689
      2 C         139.5936  139.7751  161.3803 C.3     1  UNL1        0.0724
      3 C         140.3524  139.1887  160.2270 C.3     1  UNL1        0.0175
      4 C         141.5581  139.8973  159.6845 C.3     1  UNL1        0.0060
      5 C         142.0050  141.1923  160.2954 C.3     1  UNL1        0.0175
      6 C         141.2462  141.7787  161.4487 C.3     1  UNL1        0.0724
      7 C         141.1112  138.6022  159.0735 C.3     1  UNL1        0.0217
      8 C         141.8700  138.0158  157.9202 C.3     1  UNL1        0.0938
      9 N         143.0757  138.7244  157.3777 N.am    1  UNL1       -0.2748
     10 C         143.8345  138.1378  156.2243 C.2     1  UNL1        0.2668
     11 O         145.0402  138.8464  155.6818 O.2     1  UNL1       -0.2683
     12 C         143.5226  140.0193  157.9886 C.3     1  UNL1        0.0938
     13 C         142.7638  140.6058  159.1420 C.3     1  UNL1        0.0217
     14 C         143.3876  136.8429  155.6134 C.ar    1  UNL1        0.1347
     15 C         142.5104  136.8508  154.3967 C.ar    1  UNL1        0.0238
     16 C         142.0635  135.5558  153.7858 C.ar    1  UNL1        0.0033
     17 C         142.4939  134.2528  154.3916 C.ar    1  UNL1        0.0207
     18 C         143.3711  134.2448  155.6083 C.ar    1  UNL1        0.0990
     19 N         143.8180  135.5399  156.2192 N.ar    1  UNL1       -0.2393
     20 C         139.2817  141.6566  163.1446 C.3     1  UNL1        0.1022
     21 C         140.3574  141.2486  165.4740 C.ar    1  UNL1        0.1427
     22 C         140.3545  140.5513  166.8021 C.ar    1  UNL1        0.0372
     23 C         139.2729  139.5647  167.1288 C.ar    1  UNL1        0.0031
     24 C         138.1942  139.2754  166.1274 C.ar    1  UNL1       -0.0001
     25 C         138.1971  139.9727  164.7994 C.ar    1  UNL1        0.0001
     26 C         139.2788  140.9593  164.4727 C.ar    1  UNL1        0.0284
     27 O         141.4390  142.2352  165.1474 O.3     1  UNL1       -0.4507
     28 C         143.8841  142.7332  164.4239 C.ar    1  UNL1        0.1730
     29 C         145.2250  142.2490  163.9574 C.ar    1  UNL1        0.0401
     30 C         145.4617  140.7828  163.7480 C.ar    1  UNL1        0.0033
     31 C         144.3575  139.8005  164.0050 C.ar    1  UNL1        0.0033
     32 C         143.0166  140.2847  164.4715 C.ar    1  UNL1        0.0406
     33 C         142.7799  141.7511  164.6809 C.ar    1  UNL1        0.1789
     34 C         142.8899  144.9909  163.6086 C.3     1  UNL1        0.2526
     35 O         143.6474  144.1996  164.6333 O.3     1  UNL1       -0.4684
@<TRIPOS>BOND
     1    34    35    1
     2    35    28    1
     3    28    29   ar
     4    29    30   ar
     5    30    31   ar
     6    31    32   ar
     7    32    33   ar
     8    33    27    1
     9    27    21    1
    10    21    22   ar
    11    22    23   ar
    12    23    24   ar
    13    24    25   ar
    14    25    26   ar
    15    26    20    1
    16    20     1    1
    17     1     2    1
    18     2     3    1
    19     3     4    1
    20     4     5    1
    21     5     6    1
    22     4     7    1
    23     7     8    1
    24     8     9    1
    25     9    10   am
    26    10    11    2
    27    10    14    1
    28    14    15   ar
    29    15    16   ar
    30    16    17   ar
    31    17    18   ar
    32    18    19   ar
    33     9    12    1
    34    12    13    1
    35    33    28   ar
    36    26    21   ar
    37     6     1    1
    38    19    14   ar
    39    13     4    1
