@<TRIPOS>MOLECULE
*****
 32 34 0 0 0
SMALL
GASTEIGER

@<TRIPOS>ATOM
      1 C         141.5373  141.7333  165.7462 C.2     1  UNL1        0.2488
      2 O         142.1492  142.9230  165.0678 O.2     1  UNL1       -0.2700
      3 N         140.4410  140.9654  165.0692 N.am    1  UNL1       -0.2999
      4 H         140.0394  140.1846  165.5145 H       1  UNL1        0.1498
      5 C         142.1781  139.8544  167.4224 C.ar    1  UNL1        0.1443
      6 C         142.6626  139.4326  168.7778 C.ar    1  UNL1        0.0520
      7 C         142.9909  140.4677  169.8126 C.ar    1  UNL1        0.0553
      8 N         143.4754  140.0458  171.1681 N.pl3   1  UNL1       -0.3563
      9 C         142.8347  141.9247  169.4920 C.ar    1  UNL1        0.0709
     10 CL        143.1629  142.9598  170.5268 Cl      1  UNL1       -0.0810
     11 C         142.3502  142.3465  168.1365 C.ar    1  UNL1        0.0202
     12 C         142.0219  141.3114  167.1017 C.ar    1  UNL1        0.0882
     13 H         143.5779  139.0896  171.3786 H       1  UNL1        0.1424
     14 H         143.6909  140.7252  171.8473 H       1  UNL1        0.1424
     15 C         142.9294  138.2815  165.4959 C.3     1  UNL1        0.2525
     16 O         141.8498  138.8193  166.3876 O.3     1  UNL1       -0.4712
     17 C         139.9564  141.3873  163.7138 C.3     1  UNL1        0.1017
     18 C         140.5322  140.7553  162.4813 C.3     1  UNL1        0.0394
     19 C         140.0476  141.1772  161.1258 C.3     1  UNL1        0.0739
     20 N         138.9873  142.2310  161.0029 N.3     1  UNL1       -0.2705
     21 C         138.4115  142.8630  162.2354 C.3     1  UNL1        0.1037
     22 C         138.8960  142.4411  163.5908 C.3     1  UNL1        0.1490
     23 O         138.3202  143.0731  164.8233 O.3     1  UNL1       -0.3505
     24 C         138.7223  144.4654  165.2100 C.3     1  UNL1        0.1741
     25 C         138.5028  142.6528  159.6474 C.3     1  UNL1        0.0743
     26 C         139.4772  143.1646  158.6284 C.3     1  UNL1        0.0457
     27 C         140.1522  144.4883  158.8346 C.3     1  UNL1        0.1527
     28 N         140.3520  145.0200  160.2228 N.ar    1  UNL1       -0.1508
     29 N         141.4439  144.6215  161.1710 N.ar    1  UNL1       -0.1263
     30 C         141.2617  145.3989  162.4409 C.ar    1  UNL1        0.2447
     31 N         140.0573  146.2778  162.2776 N.ar    1  UNL1       -0.1044
     32 N         139.4950  146.0437  160.9067 N.ar    1  UNL1       -0.0450
@<TRIPOS>BOND
     1    15    16    1
     2    16     5    1
     3     5     6   ar
     4     6     7   ar
     5     7     8    1
     6     7     9   ar
     7     9    10    1
     8     9    11   ar
     9    11    12   ar
    10    12     1    1
    11     1     2    2
    12     1     3   am
    13    17     3    1
    14    17    18    1
    15    18    19    1
    16    19    20    1
    17    20    25    1
    18    25    26    1
    19    26    27    1
    20    27    28    1
    21    28    29   ar
    22    29    30   ar
    23    30    31   ar
    24    31    32   ar
    25    20    21    1
    26    21    22    1
    27    22    23    1
    28    23    24    1
    29    12     5   ar
    30    22    17    1
    31    32    28   ar
    32     8    13    1
    33     8    14    1
    34     3     4    1
@<TRIPOS>MOLECULE
*****
 32 34 0 0 0
SMALL
GASTEIGER

@<TRIPOS>ATOM
      1 C         140.8033  141.3655  165.8659 C.2     1  UNL1        0.2488
      2 O         139.5502  141.9490  165.2836 O.2     1  UNL1       -0.2700
      3 N         141.5742  140.3303  165.1017 N.am    1  UNL1       -0.2999
      4 H         142.3967  139.9473  165.4839 H       1  UNL1        0.1498
      5 C         142.7470  142.0670  167.4407 C.ar    1  UNL1        0.1443
      6 C         143.2293  142.5188  168.7873 C.ar    1  UNL1        0.0520
      7 C         142.2502  142.7208  169.9056 C.ar    1  UNL1        0.0553
      8 N         142.7326  143.1726  171.2523 N.pl3   1  UNL1       -0.3563
      9 C         140.7889  142.4711  169.6774 C.ar    1  UNL1        0.0709
     10 CL        139.8099  142.6731  170.7957 Cl      1  UNL1       -0.0810
     11 C         140.3066  142.0193  168.3308 C.ar    1  UNL1        0.0202
     12 C         141.2857  141.8173  167.2125 C.ar    1  UNL1        0.0882
     13 H         143.6917  143.3365  171.4021 H       1  UNL1        0.1424
     14 H         142.0900  143.3052  171.9863 H       1  UNL1        0.1424
     15 C         144.1281  143.0238  165.4591 C.3     1  UNL1        0.2525
     16 O         143.7260  141.8650  166.3224 O.3     1  UNL1       -0.4712
     17 C         141.0919  139.8785  163.7551 C.3     1  UNL1        0.1017
     18 C         141.5314  140.6049  162.5185 C.3     1  UNL1        0.0394
     19 C         141.0491  140.1530  161.1719 C.3     1  UNL1        0.0739
     20 N         140.1273  138.9748  161.0620 N.3     1  UNL1       -0.2705
     21 C         139.6878  138.2484  162.2986 C.3     1  UNL1        0.1037
     22 C         140.1701  138.7002  163.6451 C.3     1  UNL1        0.1490
     23 O         139.7306  137.9738  164.8817 O.3     1  UNL1       -0.3505
     24 C         138.4948  138.4125  165.6100 C.3     1  UNL1        0.1741
     25 C         139.6450  138.5230  159.7154 C.3     1  UNL1        0.0743
     26 C         139.0935  139.5224  158.7422 C.3     1  UNL1        0.0457
     27 C         137.8798  140.3276  159.1010 C.3     1  UNL1        0.1527
     28 N         137.9753  141.4059  160.1393 N.ar    1  UNL1       -0.1508
     29 N         137.6021  141.2724  161.5860 N.ar    1  UNL1       -0.1263
     30 C         137.8568  142.5910  162.2541 C.ar    1  UNL1        0.2447
     31 N         138.3875  143.5395  161.2203 N.ar    1  UNL1       -0.1044
     32 N         138.4607  142.8072  159.9133 N.ar    1  UNL1       -0.0450
@<TRIPOS>BOND
     1    15    16    1
     2    16     5    1
     3     5     6   ar
     4     6     7   ar
     5     7     8    1
     6     7     9   ar
     7     9    10    1
     8     9    11   ar
     9    11    12   ar
    10    12     1    1
    11     1     2    2
    12     1     3   am
    13    17     3    1
    14    17    18    1
    15    18    19    1
    16    19    20    1
    17    20    25    1
    18    25    26    1
    19    26    27    1
    20    27    28    1
    21    28    29   ar
    22    29    30   ar
    23    30    31   ar
    24    31    32   ar
    25    20    21    1
    26    21    22    1
    27    22    23    1
    28    23    24    1
    29    12     5   ar
    30    22    17    1
    31    32    28   ar
    32     8    13    1
    33     8    14    1
    34     3     4    1
@<TRIPOS>MOLECULE
*****
 32 34 0 0 0
SMALL
GASTEIGER

@<TRIPOS>ATOM
      1 C         141.9947  140.2377  165.7101 C.2     1  UNL1        0.2488
      2 O         142.8516  141.3880  165.2717 O.2     1  UNL1       -0.2700
      3 N         141.5850  139.1876  164.7204 N.am    1  UNL1       -0.2999
      4 H         141.0226  138.4326  165.0082 H       1  UNL1        0.1498
      5 C         140.0844  140.1535  167.4691 C.ar    1  UNL1        0.1443
      6 C         139.6372  140.0531  168.8973 C.ar    1  UNL1        0.0520
      7 C         140.6529  139.9365  169.9949 C.ar    1  UNL1        0.0553
      8 N         140.2056  139.8361  171.4231 N.pl3   1  UNL1       -0.3563
      9 C         142.1159  139.9203  169.6642 C.ar    1  UNL1        0.0709
     10 CL        143.1316  139.8036  170.7618 Cl      1  UNL1       -0.0810
     11 C         142.5631  140.0206  168.2360 C.ar    1  UNL1        0.0202
     12 C         141.5474  140.1373  167.1384 C.ar    1  UNL1        0.0882
     13 H         139.2454  139.8468  171.6401 H       1  UNL1        0.1424
     14 H         140.8722  139.7596  172.1435 H       1  UNL1        0.1424
     15 C         138.1289  139.1341  166.0955 C.3     1  UNL1        0.2525
     16 O         139.0687  140.2701  166.3715 O.3     1  UNL1       -0.4712
     17 C         142.0323  139.2880  163.2922 C.3     1  UNL1        0.1017
     18 C         143.4094  138.8374  162.9041 C.3     1  UNL1        0.0394
     19 C         143.8566  138.9378  161.4758 C.3     1  UNL1        0.0739
     20 N         142.9268  139.4887  160.4356 N.3     1  UNL1       -0.2705
     21 C         141.5497  139.9392  160.8237 C.3     1  UNL1        0.1037
     22 C         141.1024  139.8389  162.2520 C.3     1  UNL1        0.1490
     23 O         139.7253  140.2895  162.6401 O.3     1  UNL1       -0.3505
     24 C         138.5515  139.3797  162.4297 C.3     1  UNL1        0.1741
     25 C         143.3741  139.5890  159.0074 C.3     1  UNL1        0.0743
     26 C         144.0982  140.8138  158.5326 C.3     1  UNL1        0.0457
     27 C         143.5003  142.1717  158.7540 C.3     1  UNL1        0.1527
     28 N         143.6623  142.8554  160.0793 N.ar    1  UNL1       -0.1508
     29 N         144.6685  142.5049  161.1350 N.ar    1  UNL1       -0.1263
     30 C         144.4747  143.4425  162.2897 C.ar    1  UNL1        0.2447
     31 N         143.3486  144.3726  161.9476 N.ar    1  UNL1       -0.1044
     32 N         142.8465  144.0097  160.5814 N.ar    1  UNL1       -0.0450
@<TRIPOS>BOND
     1    15    16    1
     2    16     5    1
     3     5     6   ar
     4     6     7   ar
     5     7     8    1
     6     7     9   ar
     7     9    10    1
     8     9    11   ar
     9    11    12   ar
    10    12     1    1
    11     1     2    2
    12     1     3   am
    13    17     3    1
    14    17    18    1
    15    18    19    1
    16    19    20    1
    17    20    25    1
    18    25    26    1
    19    26    27    1
    20    27    28    1
    21    28    29   ar
    22    29    30   ar
    23    30    31   ar
    24    31    32   ar
    25    20    21    1
    26    21    22    1
    27    22    23    1
    28    23    24    1
    29    12     5   ar
    30    22    17    1
    31    32    28   ar
    32     8    13    1
    33     8    14    1
    34     3     4    1
@<TRIPOS>MOLECULE
*****
 32 34 0 0 0
SMALL
GASTEIGER

@<TRIPOS>ATOM
      1 C         141.0856  142.0791  165.8730 C.2     1  UNL1        0.2488
      2 O         140.0161  142.8934  165.2074 O.2     1  UNL1       -0.2700
      3 N         142.3190  141.6946  165.1109 N.am    1  UNL1       -0.2999
      4 H         143.0210  141.1602  165.5478 H       1  UNL1        0.1498
      5 C         141.2931  140.2552  167.7116 C.ar    1  UNL1        0.1443
      6 C         141.1292  139.8254  169.1393 C.ar    1  UNL1        0.0520
      7 C         140.5937  140.7894  170.1561 C.ar    1  UNL1        0.0553
      8 N         140.4298  140.3595  171.5838 N.pl3   1  UNL1       -0.3563
      9 C         140.2222  142.1834  169.7452 C.ar    1  UNL1        0.0709
     10 CL        139.6867  143.1475  170.7619 Cl      1  UNL1       -0.0810
     11 C         140.3861  142.6132  168.3175 C.ar    1  UNL1        0.0202
     12 C         140.9216  141.6491  167.3007 C.ar    1  UNL1        0.0882
     13 H         140.6736  139.4446  171.8535 H       1  UNL1        0.1424
     14 H         140.0783  140.9923  172.2512 H       1  UNL1        0.1424
     15 C         143.2008  138.7091  166.8629 C.3     1  UNL1        0.2525
     16 O         141.8286  139.2911  166.6949 O.3     1  UNL1       -0.4712
     17 C         142.4830  142.1245  163.6832 C.3     1  UNL1        0.1017
     18 C         143.3221  143.3231  163.3525 C.3     1  UNL1        0.0394
     19 C         143.4860  143.7530  161.9248 C.3     1  UNL1        0.0739
     20 N         142.8110  142.9842  160.8278 N.3     1  UNL1       -0.2705
     21 C         141.9719  141.7856  161.1586 C.3     1  UNL1        0.1037
     22 C         141.8080  141.3558  162.5862 C.3     1  UNL1        0.1490
     23 O         140.9689  140.1572  162.9169 O.3     1  UNL1       -0.3505
     24 C         139.4751  140.2332  162.8043 C.3     1  UNL1        0.1741
     25 C         142.9750  143.4141  159.4002 C.3     1  UNL1        0.0743
     26 C         141.8266  144.0456  158.6704 C.3     1  UNL1        0.0457
     27 C         141.0995  145.2080  159.2789 C.3     1  UNL1        0.1527
     28 N         140.2213  144.9993  160.4769 N.ar    1  UNL1       -0.1508
     29 N         140.2641  145.7911  161.7502 N.ar    1  UNL1       -0.1263
     30 C         139.2154  145.2434  162.6722 C.ar    1  UNL1        0.2447
     31 N         138.5244  144.1130  161.9688 N.ar    1  UNL1       -0.1044
     32 N         139.1460  143.9621  160.6120 N.ar    1  UNL1       -0.0450
@<TRIPOS>BOND
     1    15    16    1
     2    16     5    1
     3     5     6   ar
     4     6     7   ar
     5     7     8    1
     6     7     9   ar
     7     9    10    1
     8     9    11   ar
     9    11    12   ar
    10    12     1    1
    11     1     2    2
    12     1     3   am
    13    17     3    1
    14    17    18    1
    15    18    19    1
    16    19    20    1
    17    20    25    1
    18    25    26    1
    19    26    27    1
    20    27    28    1
    21    28    29   ar
    22    29    30   ar
    23    30    31   ar
    24    31    32   ar
    25    20    21    1
    26    21    22    1
    27    22    23    1
    28    23    24    1
    29    12     5   ar
    30    22    17    1
    31    32    28   ar
    32     8    13    1
    33     8    14    1
    34     3     4    1
@<TRIPOS>MOLECULE
*****
 32 34 0 0 0
SMALL
GASTEIGER

@<TRIPOS>ATOM
      1 C         142.6590  141.8055  165.7864 C.2     1  UNL1        0.2488
      2 O         141.5730  142.6894  165.2489 O.2     1  UNL1       -0.2700
      3 N         143.7249  141.2843  164.8686 N.am    1  UNL1       -0.2999
      4 H         144.4378  140.7041  165.2214 H       1  UNL1        0.1498
      5 C         142.5870  140.0043  167.6575 C.ar    1  UNL1        0.1443
      6 C         142.6073  139.6415  169.1127 C.ar    1  UNL1        0.0520
      7 C         142.7198  140.7170  170.1523 C.ar    1  UNL1        0.0553
      8 N         142.7401  140.3541  171.6077 N.pl3   1  UNL1       -0.3563
      9 C         142.8121  142.1552  169.7366 C.ar    1  UNL1        0.0709
     10 CL        142.9246  143.2307  170.7762 Cl      1  UNL1       -0.0810
     11 C         142.7918  142.5180  168.2813 C.ar    1  UNL1        0.0202
     12 C         142.6793  141.4426  167.2418 C.ar    1  UNL1        0.0882
     13 H         142.6796  139.4101  171.8805 H       1  UNL1        0.1424
     14 H         142.8140  141.0599  172.2900 H       1  UNL1        0.1424
     15 C         143.6398  138.0247  166.3450 C.3     1  UNL1        0.2525
     16 O         142.4745  138.9289  166.6179 O.3     1  UNL1       -0.4712
     17 C         143.7047  141.6472  163.4133 C.3     1  UNL1        0.1017
     18 C         144.4003  142.8891  162.9402 C.3     1  UNL1        0.0394
     19 C         144.3801  143.2519  161.4849 C.3     1  UNL1        0.0739
     20 N         143.6642  142.3728  160.5027 N.3     1  UNL1       -0.2705
     21 C         142.9686  141.1309  160.9757 C.3     1  UNL1        0.1037
     22 C         142.9888  140.7681  162.4310 C.3     1  UNL1        0.1490
     23 O         142.2932  139.5262  162.9041 O.3     1  UNL1       -0.3505
     24 C         142.9360  138.1853  162.7074 C.3     1  UNL1        0.1741
     25 C         143.6440  142.7356  159.0474 C.3     1  UNL1        0.0743
     26 C         142.6833  143.7729  158.5463 C.3     1  UNL1        0.0457
     27 C         141.2218  143.6573  158.8637 C.3     1  UNL1        0.1527
     28 N         140.6458  144.4065  160.0286 N.ar    1  UNL1       -0.1508
     29 N         140.6976  143.9781  161.4652 N.ar    1  UNL1       -0.1263
     30 C         140.0006  145.0225  162.2858 C.ar    1  UNL1        0.2447
     31 N         139.5180  146.0964  161.3564 N.ar    1  UNL1       -0.1044
     32 N         139.9167  145.7157  159.9613 N.ar    1  UNL1       -0.0450
@<TRIPOS>BOND
     1    15    16    1
     2    16     5    1
     3     5     6   ar
     4     6     7   ar
     5     7     8    1
     6     7     9   ar
     7     9    10    1
     8     9    11   ar
     9    11    12   ar
    10    12     1    1
    11     1     2    2
    12     1     3   am
    13    17     3    1
    14    17    18    1
    15    18    19    1
    16    19    20    1
    17    20    25    1
    18    25    26    1
    19    26    27    1
    20    27    28    1
    21    28    29   ar
    22    29    30   ar
    23    30    31   ar
    24    31    32   ar
    25    20    21    1
    26    21    22    1
    27    22    23    1
    28    23    24    1
    29    12     5   ar
    30    22    17    1
    31    32    28   ar
    32     8    13    1
    33     8    14    1
    34     3     4    1
@<TRIPOS>MOLECULE
*****
 32 34 0 0 0
SMALL
GASTEIGER

@<TRIPOS>ATOM
      1 C         140.5443  142.3016  165.7525 C.2     1  UNL1        0.2488
      2 O         141.9053  142.3850  165.1276 O.2     1  UNL1       -0.2700
      3 N         139.3523  142.8567  165.0308 N.am    1  UNL1       -0.2999
      4 H         138.4590  142.8020  165.4410 H       1  UNL1        0.1498
      5 C         139.4648  140.4820  167.2604 C.ar    1  UNL1        0.1443
      6 C         139.2958  139.8435  168.6071 C.ar    1  UNL1        0.0520
      7 C         140.0372  140.3861  169.7928 C.ar    1  UNL1        0.0553
      8 N         139.8682  139.7475  171.1396 N.pl3   1  UNL1       -0.3563
      9 C         140.9477  141.5672  169.6317 C.ar    1  UNL1        0.0709
     10 CL        141.6892  142.1098  170.8174 Cl      1  UNL1       -0.0810
     11 C         141.1167  142.2057  168.2850 C.ar    1  UNL1        0.0202
     12 C         140.3753  141.6631  167.0993 C.ar    1  UNL1        0.0882
     13 H         139.2706  138.9723  171.2453 H       1  UNL1        0.1424
     14 H         140.3548  140.1037  171.9178 H       1  UNL1        0.1424
     15 C         139.1587  138.6501  165.4436 C.3     1  UNL1        0.2525
     16 O         138.7233  139.9393  166.0747 O.3     1  UNL1       -0.4712
     17 C         139.5213  143.4952  163.6841 C.3     1  UNL1        0.1017
     18 C         139.8443  144.9565  163.5821 C.3     1  UNL1        0.0394
     19 C         140.0133  145.5950  162.2353 C.3     1  UNL1        0.0739
     20 N         139.8592  144.7723  160.9906 N.3     1  UNL1       -0.2705
     21 C         139.5362  143.3111  161.0926 C.3     1  UNL1        0.1037
     22 C         139.3672  142.6725  162.4393 C.3     1  UNL1        0.1490
     23 O         139.0441  141.2113  162.5413 O.3     1  UNL1       -0.3505
     24 C         137.6203  140.7673  162.7011 C.3     1  UNL1        0.1741
     25 C         140.0282  145.4108  159.6439 C.3     1  UNL1        0.0743
     26 C         141.3579  145.3605  158.9515 C.3     1  UNL1        0.0457
     27 C         142.0653  144.0488  158.7806 C.3     1  UNL1        0.1527
     28 N         143.0236  143.5711  159.8311 N.ar    1  UNL1       -0.1508
     29 N         144.0327  142.4730  159.6701 N.ar    1  UNL1       -0.1263
     30 C         144.7738  142.3308  160.9665 C.ar    1  UNL1        0.2447
     31 N         144.2227  143.3410  161.9287 N.ar    1  UNL1       -0.1044
     32 N         143.1410  144.1076  161.2270 N.ar    1  UNL1       -0.0450
@<TRIPOS>BOND
     1    15    16    1
     2    16     5    1
     3     5     6   ar
     4     6     7   ar
     5     7     8    1
     6     7     9   ar
     7     9    10    1
     8     9    11   ar
     9    11    12   ar
    10    12     1    1
    11     1     2    2
    12     1     3   am
    13    17     3    1
    14    17    18    1
    15    18    19    1
    16    19    20    1
    17    20    25    1
    18    25    26    1
    19    26    27    1
    20    27    28    1
    21    28    29   ar
    22    29    30   ar
    23    30    31   ar
    24    31    32   ar
    25    20    21    1
    26    21    22    1
    27    22    23    1
    28    23    24    1
    29    12     5   ar
    30    22    17    1
    31    32    28   ar
    32     8    13    1
    33     8    14    1
    34     3     4    1
@<TRIPOS>MOLECULE
*****
 32 34 0 0 0
SMALL
GASTEIGER

@<TRIPOS>ATOM
      1 C         141.9926  139.1946  165.7809 C.2     1  UNL1        0.2488
      2 O         142.9784  138.0946  165.5199 O.2     1  UNL1       -0.2700
      3 N         141.4181  139.9743  164.6354 N.am    1  UNL1       -0.2999
      4 H         140.7712  140.6963  164.8067 H       1  UNL1        0.1498
      5 C         140.1597  139.8885  167.4865 C.ar    1  UNL1        0.1443
      6 C         139.7485  140.2090  168.8929 C.ar    1  UNL1        0.0520
      7 C         140.7589  140.1561  170.0003 C.ar    1  UNL1        0.0553
      8 N         140.3476  140.4766  171.4068 N.pl3   1  UNL1       -0.3563
      9 C         142.1805  139.7827  169.7012 C.ar    1  UNL1        0.0709
     10 CL        143.1909  139.7299  170.8086 Cl      1  UNL1       -0.0810
     11 C         142.5917  139.4623  168.2948 C.ar    1  UNL1        0.0202
     12 C         141.5813  139.5151  167.1874 C.ar    1  UNL1        0.0882
     13 H         139.4145  140.7217  171.6031 H       1  UNL1        0.1424
     14 H         141.0107  140.4419  172.1336 H       1  UNL1        0.1424
     15 C         138.1376  138.8435  166.2339 C.3     1  UNL1        0.2525
     16 O         139.1493  139.9414  166.3791 O.3     1  UNL1       -0.4712
     17 C         141.8294  139.6538  163.2289 C.3     1  UNL1        0.1017
     18 C         140.9871  138.7377  162.3915 C.3     1  UNL1        0.0394
     19 C         141.3984  138.4172  160.9850 C.3     1  UNL1        0.0739
     20 N         142.6519  139.0129  160.4160 N.3     1  UNL1       -0.2705
     21 C         143.4942  139.9291  161.2534 C.3     1  UNL1        0.1037
     22 C         143.0830  140.2495  162.6599 C.3     1  UNL1        0.1490
     23 O         143.9252  141.1656  163.4973 O.3     1  UNL1       -0.3505
     24 C         145.2156  140.6728  164.0820 C.3     1  UNL1        0.1741
     25 C         143.0632  138.6925  159.0095 C.3     1  UNL1        0.0743
     26 C         142.2540  137.7293  158.1925 C.3     1  UNL1        0.0457
     27 C         142.8717  137.0474  157.0078 C.3     1  UNL1        0.1527
     28 N         142.7248  135.5646  156.8351 N.ar    1  UNL1       -0.1508
     29 N         141.9457  134.8757  155.7542 N.ar    1  UNL1       -0.1263
     30 C         142.0706  133.3957  155.9641 C.ar    1  UNL1        0.2447
     31 N         142.9270  133.1699  157.1748 N.ar    1  UNL1       -0.1044
     32 N         143.3313  134.5104  157.7132 N.ar    1  UNL1       -0.0450
@<TRIPOS>BOND
     1    15    16    1
     2    16     5    1
     3     5     6   ar
     4     6     7   ar
     5     7     8    1
     6     7     9   ar
     7     9    10    1
     8     9    11   ar
     9    11    12   ar
    10    12     1    1
    11     1     2    2
    12     1     3   am
    13    17     3    1
    14    17    18    1
    15    18    19    1
    16    19    20    1
    17    20    25    1
    18    25    26    1
    19    26    27    1
    20    27    28    1
    21    28    29   ar
    22    29    30   ar
    23    30    31   ar
    24    31    32   ar
    25    20    21    1
    26    21    22    1
    27    22    23    1
    28    23    24    1
    29    12     5   ar
    30    22    17    1
    31    32    28   ar
    32     8    13    1
    33     8    14    1
    34     3     4    1
@<TRIPOS>MOLECULE
*****
 32 34 0 0 0
SMALL
GASTEIGER

@<TRIPOS>ATOM
      1 C         142.0679  139.4957  165.7807 C.2     1  UNL1        0.2488
      2 O         142.7410  138.2244  165.3556 O.2     1  UNL1       -0.2700
      3 N         141.8464  140.5961  164.7856 N.am    1  UNL1       -0.2999
      4 H         141.4046  141.4305  165.0646 H       1  UNL1        0.1498
      5 C         140.1845  140.0012  167.4975 C.ar    1  UNL1        0.1443
      6 C         139.7329  140.1722  168.9176 C.ar    1  UNL1        0.0520
      7 C         140.7132  140.0087  170.0411 C.ar    1  UNL1        0.0553
      8 N         140.2616  140.1797  171.4613 N.pl3   1  UNL1       -0.3563
      9 C         142.1450  139.6742  169.7446 C.ar    1  UNL1        0.0709
     10 CL        143.1252  139.5107  170.8681 Cl      1  UNL1       -0.0810
     11 C         142.5965  139.5032  168.3244 C.ar    1  UNL1        0.0202
     12 C         141.6163  139.6667  167.2009 C.ar    1  UNL1        0.0882
     13 H         139.3218  140.3992  171.6560 H       1  UNL1        0.1424
     14 H         140.9049  140.0724  172.1988 H       1  UNL1        0.1424
     15 C         138.2829  139.0376  166.0124 C.3     1  UNL1        0.2525
     16 O         139.2042  140.1647  166.3739 O.3     1  UNL1       -0.4712
     17 C         142.2979  140.4251  163.3655 C.3     1  UNL1        0.1017
     18 C         143.6234  140.9750  162.9286 C.3     1  UNL1        0.0394
     19 C         144.0749  140.8040  161.5083 C.3     1  UNL1        0.0739
     20 N         143.2011  140.0832  160.5251 N.3     1  UNL1       -0.2705
     21 C         141.8757  139.5333  160.9621 C.3     1  UNL1        0.1037
     22 C         141.4241  139.7042  162.3822 C.3     1  UNL1        0.1490
     23 O         140.0987  139.1543  162.8191 O.3     1  UNL1       -0.3505
     24 C         139.8907  137.6708  162.8959 C.3     1  UNL1        0.1741
     25 C         143.6527  139.9122  159.1050 C.3     1  UNL1        0.0743
     26 C         142.9305  140.6212  157.9979 C.3     1  UNL1        0.0457
     27 C         142.4573  139.8538  156.7990 C.3     1  UNL1        0.1527
     28 N         143.1490  138.5839  156.4005 N.ar    1  UNL1       -0.1508
     29 N         142.6311  137.1927  156.6163 N.ar    1  UNL1       -0.1263
     30 C         143.6420  136.2311  156.0654 C.ar    1  UNL1        0.2447
     31 N         144.7846  137.0279  155.5092 N.ar    1  UNL1       -0.1044
     32 N         144.4800  138.4820  155.7162 N.ar    1  UNL1       -0.0450
@<TRIPOS>BOND
     1    15    16    1
     2    16     5    1
     3     5     6   ar
     4     6     7   ar
     5     7     8    1
     6     7     9   ar
     7     9    10    1
     8     9    11   ar
     9    11    12   ar
    10    12     1    1
    11     1     2    2
    12     1     3   am
    13    17     3    1
    14    17    18    1
    15    18    19    1
    16    19    20    1
    17    20    25    1
    18    25    26    1
    19    26    27    1
    20    27    28    1
    21    28    29   ar
    22    29    30   ar
    23    30    31   ar
    24    31    32   ar
    25    20    21    1
    26    21    22    1
    27    22    23    1
    28    23    24    1
    29    12     5   ar
    30    22    17    1
    31    32    28   ar
    32     8    13    1
    33     8    14    1
    34     3     4    1
@<TRIPOS>MOLECULE
*****
 32 34 0 0 0
SMALL
GASTEIGER

@<TRIPOS>ATOM
      1 C         142.0119  140.1342  165.5378 C.2     1  UNL1        0.2488
      2 O         142.9730  139.1085  165.0142 O.2     1  UNL1       -0.2700
      3 N         141.5425  141.2460  164.6470 N.am    1  UNL1       -0.2999
      4 H         140.9117  141.9192  164.9906 H       1  UNL1        0.1498
      5 C         140.0646  140.2490  167.2540 C.ar    1  UNL1        0.1443
      6 C         139.5730  140.1630  168.6684 C.ar    1  UNL1        0.0520
      7 C         140.5369  139.8761  169.7814 C.ar    1  UNL1        0.0553
      8 N         140.0452  139.7901  171.1959 N.pl3   1  UNL1       -0.3563
      9 C         141.9925  139.6753  169.4798 C.ar    1  UNL1        0.0709
     10 CL        142.9564  139.3885  170.5928 Cl      1  UNL1       -0.0810
     11 C         142.4841  139.7614  168.0653 C.ar    1  UNL1        0.0202
     12 C         141.5202  140.0482  166.9524 C.ar    1  UNL1        0.0882
     13 H         139.0898  139.9219  171.3939 H       1  UNL1        0.1424
     14 H         140.6778  139.6019  171.9264 H       1  UNL1        0.1424
     15 C         138.1985  139.4510  165.6320 C.3     1  UNL1        0.2525
     16 O         139.1007  140.5358  166.1410 O.3     1  UNL1       -0.4712
     17 C         142.0342  141.3320  163.2325 C.3     1  UNL1        0.1017
     18 C         141.1957  140.7907  162.1127 C.3     1  UNL1        0.0394
     19 C         141.6874  140.8767  160.6982 C.3     1  UNL1        0.0739
     20 N         143.0176  141.5042  160.4035 N.3     1  UNL1       -0.2705
     21 C         143.8561  142.0455  161.5232 C.3     1  UNL1        0.1037
     22 C         143.3644  141.9595  162.9377 C.3     1  UNL1        0.1490
     23 O         144.2029  142.5008  164.0574 O.3     1  UNL1       -0.3505
     24 C         144.0440  143.9279  164.4912 C.3     1  UNL1        0.1741
     25 C         143.5092  141.5902  158.9890 C.3     1  UNL1        0.0743
     26 C         143.9039  142.9172  158.4115 C.3     1  UNL1        0.0457
     27 C         142.8528  143.9386  158.0922 C.3     1  UNL1        0.1527
     28 N         141.7382  144.1964  159.0625 N.ar    1  UNL1       -0.1508
     29 N         141.8669  144.8780  160.3924 N.ar    1  UNL1       -0.1263
     30 C         140.5075  144.9206  161.0250 C.ar    1  UNL1        0.2447
     31 N         139.5386  144.2653  160.0860 N.ar    1  UNL1       -0.1044
     32 N         140.2991  143.8177  158.8730 N.ar    1  UNL1       -0.0450
@<TRIPOS>BOND
     1    15    16    1
     2    16     5    1
     3     5     6   ar
     4     6     7   ar
     5     7     8    1
     6     7     9   ar
     7     9    10    1
     8     9    11   ar
     9    11    12   ar
    10    12     1    1
    11     1     2    2
    12     1     3   am
    13    17     3    1
    14    17    18    1
    15    18    19    1
    16    19    20    1
    17    20    25    1
    18    25    26    1
    19    26    27    1
    20    27    28    1
    21    28    29   ar
    22    29    30   ar
    23    30    31   ar
    24    31    32   ar
    25    20    21    1
    26    21    22    1
    27    22    23    1
    28    23    24    1
    29    12     5   ar
    30    22    17    1
    31    32    28   ar
    32     8    13    1
    33     8    14    1
    34     3     4    1
