@<TRIPOS>MOLECULE
*****
 37 40 0 0 0
SMALL
GASTEIGER

@<TRIPOS>ATOM
      1 C         142.3872  137.6029  158.1858 C.ar    1  UNL1        0.2245
      2 N         141.0658  138.1232  157.7032 N.ar    1  UNL1       -0.1912
      3 C         140.1064  138.7479  158.6724 C.ar    1  UNL1        0.2037
      4 N         140.4685  138.8521  160.1243 N.ar    1  UNL1       -0.1912
      5 C         141.7900  138.3317  160.6070 C.ar    1  UNL1        0.2240
      6 N         142.7493  137.7071  159.6378 N.ar    1  UNL1       -0.1806
      7 N         142.1520  138.4360  162.0589 N.pl3   1  UNL1       -0.2779
      8 C         141.3291  137.7223  163.0902 C.3     1  UNL1        0.0973
      9 C         141.6912  137.8266  164.5421 C.3     1  UNL1        0.0651
     10 C         142.8762  138.6445  164.9627 C.3     1  UNL1        0.1693
     11 C         143.6991  139.3581  163.9314 C.3     1  UNL1        0.0651
     12 C         143.3370  139.2538  162.4795 C.3     1  UNL1        0.0973
     13 O         143.2383  138.7487  166.4146 O.3     1  UNL1       -0.4791
     14 C         142.4601  139.6587  167.3182 C.ar    1  UNL1        0.1384
     15 C         142.4139  139.3907  168.7933 C.ar    1  UNL1        0.0368
     16 C         141.6357  140.3006  169.6969 C.ar    1  UNL1        0.0070
     17 C         140.9037  141.4785  169.1254 C.ar    1  UNL1        0.0716
     18 C         140.9498  141.7465  167.6502 C.ar    1  UNL1        0.0070
     19 C         141.7280  140.8366  166.7466 C.ar    1  UNL1        0.0368
     20 C         140.1255  142.3884  170.0289 C.3     1  UNL1        0.4186
     21 F         139.3473  143.2984  170.9325 F       1  UNL1       -0.1659
     22 F         139.0224  141.3745  170.1000 F       1  UNL1       -0.1659
     23 F         141.2286  143.4024  169.9579 F       1  UNL1       -0.1659
     24 N         143.3466  136.9782  157.2166 N.pl3   1  UNL1       -0.2826
     25 H         144.2082  137.4149  157.0262 H       1  UNL1        0.1551
     26 C         142.8502  133.0944  156.5689 C.ar    1  UNL1        0.0474
     27 C         142.2864  133.1086  155.1790 C.ar    1  UNL1        0.0144
     28 C         142.0760  134.4127  154.4683 C.ar    1  UNL1        0.0025
     29 C         142.4294  135.7025  155.1474 C.ar    1  UNL1        0.0144
     30 C         142.9932  135.6883  156.5373 C.ar    1  UNL1        0.0476
     31 C         143.2036  134.3843  157.2481 C.ar    1  UNL1        0.0051
     32 C         143.7674  134.3701  158.6381 C.3     1  UNL1        0.0336
     33 C         144.5588  129.7369  157.8170 C.3     1  UNL1        0.0949
     34 C         144.3484  131.0410  157.1063 C.2     1  UNL1        0.2266
     35 O         145.4258  131.5956  156.2222 O.2     1  UNL1       -0.2748
     36 N         143.0606  131.7903  157.2797 N.am    1  UNL1       -0.2841
     37 H         142.3535  131.4263  157.8599 H       1  UNL1        0.1548
@<TRIPOS>BOND
     1    33    34    1
     2    34    35    2
     3    34    36   am
     4    36    26    1
     5    26    27   ar
     6    27    28   ar
     7    28    29   ar
     8    29    30   ar
     9    30    24    1
    10    24     1    1
    11     1     2   ar
    12     2     3   ar
    13     3     4   ar
    14     4     5   ar
    15     5     7    1
    16     7     8    1
    17     8     9    1
    18     9    10    1
    19    10    13    1
    20    13    14    1
    21    14    15   ar
    22    15    16   ar
    23    16    17   ar
    24    17    20    1
    25    20    21    1
    26    20    22    1
    27    20    23    1
    28    17    18   ar
    29    18    19   ar
    30    10    11    1
    31    11    12    1
    32     5     6   ar
    33    30    31   ar
    34    31    32    1
    35    31    26   ar
    36     6     1   ar
    37    12     7    1
    38    19    14   ar
    39    36    37    1
    40    24    25    1
@<TRIPOS>MOLECULE
*****
 37 40 0 0 0
SMALL
GASTEIGER

@<TRIPOS>ATOM
      1 C         139.9476  146.4002  157.1219 C.ar    1  UNL1        0.2245
      2 N         141.2483  146.1437  156.4202 N.ar    1  UNL1       -0.1912
      3 C         142.3785  145.4838  157.1532 C.ar    1  UNL1        0.2037
      4 N         142.2079  145.0803  158.5877 N.ar    1  UNL1       -0.1912
      5 C         140.9071  145.3367  159.2894 C.ar    1  UNL1        0.2240
      6 N         139.7770  145.9967  158.5565 N.ar    1  UNL1       -0.1806
      7 N         140.7366  144.9332  160.7240 N.pl3   1  UNL1       -0.2779
      8 C         141.6277  143.8834  161.3189 C.3     1  UNL1        0.0973
      9 C         141.4572  143.4799  162.7534 C.3     1  UNL1        0.0651
     10 C         140.3955  144.1262  163.5932 C.3     1  UNL1        0.1693
     11 C         139.5044  145.1760  162.9984 C.3     1  UNL1        0.0651
     12 C         139.6749  145.5795  161.5637 C.3     1  UNL1        0.0973
     13 O         140.2249  143.7226  165.0278 O.3     1  UNL1       -0.4791
     14 C         139.6893  142.3629  165.3659 C.ar    1  UNL1        0.1384
     15 C         138.6288  141.7398  164.5073 C.ar    1  UNL1        0.0368
     16 C         138.0932  140.3801  164.8454 C.ar    1  UNL1        0.0070
     17 C         138.6180  139.6435  166.0420 C.ar    1  UNL1        0.0716
     18 C         139.6785  140.2666  166.9006 C.ar    1  UNL1        0.0070
     19 C         140.2141  141.6263  166.5626 C.ar    1  UNL1        0.0368
     20 C         138.0823  138.2838  166.3801 C.3     1  UNL1        0.4186
     21 F         137.5467  136.9241  166.7181 F       1  UNL1       -0.1659
     22 F         138.7994  137.7068  165.1956 F       1  UNL1       -0.1659
     23 F         137.3653  138.8608  167.5645 F       1  UNL1       -0.1659
     24 N         138.8174  147.0601  156.3889 N.pl3   1  UNL1       -0.2826
     25 H         137.9004  146.7151  156.4849 H       1  UNL1        0.1551
     26 C         139.0411  150.8143  155.1216 C.ar    1  UNL1        0.0474
     27 C         139.6187  150.6170  153.7515 C.ar    1  UNL1        0.0144
     28 C         139.9292  149.2341  153.2604 C.ar    1  UNL1        0.0025
     29 C         139.6622  148.0485  154.1396 C.ar    1  UNL1        0.0144
     30 C         139.0845  148.2458  155.5097 C.ar    1  UNL1        0.0476
     31 C         138.7740  149.6287  156.0007 C.ar    1  UNL1        0.0051
     32 C         138.1963  149.8260  157.3710 C.3     1  UNL1        0.0336
     33 C         137.9086  154.6178  155.1489 C.3     1  UNL1        0.0949
     34 C         138.2191  153.2349  154.6579 C.2     1  UNL1        0.2266
     35 O         138.0183  152.8897  153.2120 O.2     1  UNL1       -0.2748
     36 N         138.7305  152.1972  155.6127 N.am    1  UNL1       -0.2841
     37 H         138.8624  152.4238  156.5616 H       1  UNL1        0.1548
@<TRIPOS>BOND
     1    33    34    1
     2    34    35    2
     3    34    36   am
     4    36    26    1
     5    26    27   ar
     6    27    28   ar
     7    28    29   ar
     8    29    30   ar
     9    30    24    1
    10    24     1    1
    11     1     2   ar
    12     2     3   ar
    13     3     4   ar
    14     4     5   ar
    15     5     7    1
    16     7     8    1
    17     8     9    1
    18     9    10    1
    19    10    13    1
    20    13    14    1
    21    14    15   ar
    22    15    16   ar
    23    16    17   ar
    24    17    20    1
    25    20    21    1
    26    20    22    1
    27    20    23    1
    28    17    18   ar
    29    18    19   ar
    30    10    11    1
    31    11    12    1
    32     5     6   ar
    33    30    31   ar
    34    31    32    1
    35    31    26   ar
    36     6     1   ar
    37    12     7    1
    38    19    14   ar
    39    36    37    1
    40    24    25    1
@<TRIPOS>MOLECULE
*****
 37 40 0 0 0
SMALL
GASTEIGER

@<TRIPOS>ATOM
      1 C         143.7470  140.0394  159.0273 C.ar    1  UNL1        0.2245
      2 N         143.2800  138.8468  158.2466 N.ar    1  UNL1       -0.1912
      3 C         142.8238  137.6118  158.9651 C.ar    1  UNL1        0.2037
      4 N         142.8345  137.5692  160.4645 N.ar    1  UNL1       -0.1912
      5 C         143.3015  138.7619  161.2453 C.ar    1  UNL1        0.2240
      6 N         143.7578  139.9970  160.5267 N.ar    1  UNL1       -0.1806
      7 N         143.3122  138.7194  162.7446 N.pl3   1  UNL1       -0.2779
      8 C         144.4485  139.3372  163.5044 C.3     1  UNL1        0.0973
      9 C         144.4592  139.2947  165.0037 C.3     1  UNL1        0.0651
     10 C         143.3336  138.6343  165.7434 C.3     1  UNL1        0.1693
     11 C         142.1973  138.0165  164.9836 C.3     1  UNL1        0.0651
     12 C         142.1867  138.0591  163.4842 C.3     1  UNL1        0.0973
     13 O         143.3443  138.5918  167.2427 O.3     1  UNL1       -0.4791
     14 C         142.5069  139.5585  168.0264 C.ar    1  UNL1        0.1384
     15 C         141.8239  140.6968  167.3281 C.ar    1  UNL1        0.0368
     16 C         140.9865  141.6635  168.1118 C.ar    1  UNL1        0.0070
     17 C         140.8321  141.4919  169.5939 C.ar    1  UNL1        0.0716
     18 C         141.5151  140.3536  170.2923 C.ar    1  UNL1        0.0070
     19 C         142.3525  139.3869  169.5086 C.ar    1  UNL1        0.0368
     20 C         139.9947  142.4586  170.3776 C.3     1  UNL1        0.4186
     21 F         139.1572  143.4253  171.1613 F       1  UNL1       -0.1659
     22 F         138.8391  141.5039  170.3205 F       1  UNL1       -0.1659
     23 F         141.1502  143.4133  170.4347 F       1  UNL1       -0.1659
     24 N         144.2033  141.2745  158.3087 N.pl3   1  UNL1       -0.2826
     25 H         145.1422  141.3607  158.0254 H       1  UNL1        0.1551
     26 C         141.8839  144.4547  158.8153 C.ar    1  UNL1        0.0474
     27 C         141.2805  144.5861  157.4483 C.ar    1  UNL1        0.0144
     28 C         141.6514  143.6137  156.3681 C.ar    1  UNL1        0.0025
     29 C         142.6256  142.5098  156.6549 C.ar    1  UNL1        0.0144
     30 C         143.2290  142.3784  158.0219 C.ar    1  UNL1        0.0476
     31 C         142.8581  143.3509  159.1020 C.ar    1  UNL1        0.0051
     32 C         143.4615  143.2194  160.4691 C.3     1  UNL1        0.0336
     33 C         139.8713  146.2117  161.7500 C.3     1  UNL1        0.0949
     34 C         140.2422  145.2392  160.6698 C.2     1  UNL1        0.2266
     35 O         139.3422  144.0788  160.3641 O.2     1  UNL1       -0.2748
     36 N         141.5130  145.4272  159.8954 N.am    1  UNL1       -0.2841
     37 H         142.1036  146.1888  160.0961 H       1  UNL1        0.1548
@<TRIPOS>BOND
     1    33    34    1
     2    34    35    2
     3    34    36   am
     4    36    26    1
     5    26    27   ar
     6    27    28   ar
     7    28    29   ar
     8    29    30   ar
     9    30    24    1
    10    24     1    1
    11     1     2   ar
    12     2     3   ar
    13     3     4   ar
    14     4     5   ar
    15     5     7    1
    16     7     8    1
    17     8     9    1
    18     9    10    1
    19    10    13    1
    20    13    14    1
    21    14    15   ar
    22    15    16   ar
    23    16    17   ar
    24    17    20    1
    25    20    21    1
    26    20    22    1
    27    20    23    1
    28    17    18   ar
    29    18    19   ar
    30    10    11    1
    31    11    12    1
    32     5     6   ar
    33    30    31   ar
    34    31    32    1
    35    31    26   ar
    36     6     1   ar
    37    12     7    1
    38    19    14   ar
    39    36    37    1
    40    24    25    1
@<TRIPOS>MOLECULE
*****
 37 40 0 0 0
SMALL
GASTEIGER

@<TRIPOS>ATOM
      1 C         142.6301  137.2340  157.3198 C.ar    1  UNL1        0.2245
      2 N         141.4978  138.0258  156.7358 N.ar    1  UNL1       -0.1912
      3 C         140.7009  138.9502  157.6078 C.ar    1  UNL1        0.2037
      4 N         141.0362  139.0828  159.0638 N.ar    1  UNL1       -0.1912
      5 C         142.1684  138.2909  159.6479 C.ar    1  UNL1        0.2240
      6 N         142.9654  137.3666  158.7758 N.ar    1  UNL1       -0.1806
      7 N         142.5037  138.4235  161.1038 N.pl3   1  UNL1       -0.2779
      8 C         143.6901  139.2368  161.5293 C.3     1  UNL1        0.0973
      9 C         144.0253  139.3694  162.9853 C.3     1  UNL1        0.0651
     10 C         143.1742  138.6886  164.0159 C.3     1  UNL1        0.1693
     11 C         141.9878  137.8753  163.5905 C.3     1  UNL1        0.0651
     12 C         141.6526  137.7427  162.1344 C.3     1  UNL1        0.0973
     13 O         143.5095  138.8212  165.4719 O.3     1  UNL1       -0.4791
     14 C         142.4496  139.2302  166.4514 C.ar    1  UNL1        0.1384
     15 C         142.7746  139.3231  167.9128 C.ar    1  UNL1        0.0368
     16 C         141.7147  139.7322  168.8923 C.ar    1  UNL1        0.0070
     17 C         140.3299  140.0484  168.4103 C.ar    1  UNL1        0.0716
     18 C         140.0049  139.9554  166.9489 C.ar    1  UNL1        0.0070
     19 C         141.0647  139.5464  165.9694 C.ar    1  UNL1        0.0368
     20 C         139.2700  140.4574  169.3898 C.3     1  UNL1        0.4186
     21 F         138.2102  140.8665  170.3693 F       1  UNL1       -0.1659
     22 F         140.2668  141.3168  170.1095 F       1  UNL1       -0.1659
     23 F         138.2733  139.5980  168.6701 F       1  UNL1       -0.1659
     24 N         143.4270  136.3097  156.4477 N.pl3   1  UNL1       -0.2826
     25 H         144.3138  136.5845  156.1200 H       1  UNL1        0.1551
     26 C         142.6457  132.4197  156.5357 C.ar    1  UNL1        0.0474
     27 C         141.7647  132.2802  155.3297 C.ar    1  UNL1        0.0144
     28 C         141.4378  133.4838  154.4964 C.ar    1  UNL1        0.0025
     29 C         141.9919  134.8270  154.8691 C.ar    1  UNL1        0.0144
     30 C         142.8729  134.9665  156.0750 C.ar    1  UNL1        0.0476
     31 C         143.1998  133.7628  156.9083 C.ar    1  UNL1        0.0051
     32 C         144.0808  133.9024  158.1143 C.3     1  UNL1        0.0336
     33 C         144.5434  129.2221  157.9227 C.3     1  UNL1        0.0949
     34 C         144.2165  130.4257  157.0894 C.2     1  UNL1        0.2266
     35 O         145.1335  130.8390  155.9766 O.2     1  UNL1       -0.2748
     36 N         142.9726  131.2160  157.3689 N.am    1  UNL1       -0.2841
     37 H         142.3708  130.9448  158.0993 H       1  UNL1        0.1548
@<TRIPOS>BOND
     1    33    34    1
     2    34    35    2
     3    34    36   am
     4    36    26    1
     5    26    27   ar
     6    27    28   ar
     7    28    29   ar
     8    29    30   ar
     9    30    24    1
    10    24     1    1
    11     1     2   ar
    12     2     3   ar
    13     3     4   ar
    14     4     5   ar
    15     5     7    1
    16     7     8    1
    17     8     9    1
    18     9    10    1
    19    10    13    1
    20    13    14    1
    21    14    15   ar
    22    15    16   ar
    23    16    17   ar
    24    17    20    1
    25    20    21    1
    26    20    22    1
    27    20    23    1
    28    17    18   ar
    29    18    19   ar
    30    10    11    1
    31    11    12    1
    32     5     6   ar
    33    30    31   ar
    34    31    32    1
    35    31    26   ar
    36     6     1   ar
    37    12     7    1
    38    19    14   ar
    39    36    37    1
    40    24    25    1
@<TRIPOS>MOLECULE
*****
 37 40 0 0 0
SMALL
GASTEIGER

@<TRIPOS>ATOM
      1 C         140.8741  140.1939  165.4070 C.ar    1  UNL1        0.2245
      2 N         139.7935  139.3247  165.9786 N.ar    1  UNL1       -0.1912
      3 C         139.2601  138.1703  165.1830 C.ar    1  UNL1        0.2037
      4 N         139.8073  137.8852  163.8158 N.ar    1  UNL1       -0.1912
      5 C         140.8879  138.7545  163.2441 C.ar    1  UNL1        0.2240
      6 N         141.4213  139.9088  164.0398 N.ar    1  UNL1       -0.1806
      7 N         141.4351  138.4694  161.8769 N.pl3   1  UNL1       -0.2779
      8 C         140.6358  138.8281  160.6594 C.3     1  UNL1        0.0973
      9 C         141.1829  138.5430  159.2922 C.3     1  UNL1        0.0651
     10 C         142.5295  137.8991  159.1425 C.3     1  UNL1        0.1693
     11 C         143.3288  137.5404  160.3600 C.3     1  UNL1        0.0651
     12 C         142.7816  137.8255  161.7273 C.3     1  UNL1        0.0973
     13 O         143.0767  137.6140  157.7753 O.3     1  UNL1       -0.4791
     14 C         142.6549  136.3753  157.0419 C.ar    1  UNL1        0.1384
     15 C         143.2957  135.0580  157.3643 C.ar    1  UNL1        0.0368
     16 C         142.8740  133.8194  156.6309 C.ar    1  UNL1        0.0070
     17 C         141.8113  133.8980  155.5752 C.ar    1  UNL1        0.0716
     18 C         141.1704  135.2154  155.2528 C.ar    1  UNL1        0.0070
     19 C         141.5922  136.4540  155.9862 C.ar    1  UNL1        0.0368
     20 C         141.3895  132.6593  154.8419 C.3     1  UNL1        0.4186
     21 F         140.9677  131.4207  154.1085 F       1  UNL1       -0.1659
     22 F         140.8778  133.5026  153.7119 F       1  UNL1       -0.1659
     23 F         141.9013  131.8160  155.9719 F       1  UNL1       -0.1659
     24 N         141.4075  141.3482  166.2026 N.pl3   1  UNL1       -0.2826
     25 H         141.3381  141.3431  167.1847 H       1  UNL1        0.1551
     26 C         141.8307  144.7058  164.1296 C.ar    1  UNL1        0.0474
     27 C         143.3248  144.8347  164.1006 C.ar    1  UNL1        0.0144
     28 C         144.1799  143.8014  164.7724 C.ar    1  UNL1        0.0025
     29 C         143.5408  142.6392  165.4730 C.ar    1  UNL1        0.0144
     30 C         142.0467  142.5104  165.5020 C.ar    1  UNL1        0.0476
     31 C         141.1916  143.5437  164.8303 C.ar    1  UNL1        0.0051
     32 C         139.6974  143.4147  164.8592 C.3     1  UNL1        0.0336
     33 C         139.5649  146.5116  161.4175 C.3     1  UNL1        0.0949
     34 C         140.4200  145.4783  162.0892 C.2     1  UNL1        0.2266
     35 O         140.7195  144.1843  161.3922 O.2     1  UNL1       -0.2748
     36 N         140.9756  145.7391  163.4579 N.am    1  UNL1       -0.2841
     37 H         140.7790  146.5884  163.9154 H       1  UNL1        0.1548
@<TRIPOS>BOND
     1    33    34    1
     2    34    35    2
     3    34    36   am
     4    36    26    1
     5    26    27   ar
     6    27    28   ar
     7    28    29   ar
     8    29    30   ar
     9    30    24    1
    10    24     1    1
    11     1     2   ar
    12     2     3   ar
    13     3     4   ar
    14     4     5   ar
    15     5     7    1
    16     7     8    1
    17     8     9    1
    18     9    10    1
    19    10    13    1
    20    13    14    1
    21    14    15   ar
    22    15    16   ar
    23    16    17   ar
    24    17    20    1
    25    20    21    1
    26    20    22    1
    27    20    23    1
    28    17    18   ar
    29    18    19   ar
    30    10    11    1
    31    11    12    1
    32     5     6   ar
    33    30    31   ar
    34    31    32    1
    35    31    26   ar
    36     6     1   ar
    37    12     7    1
    38    19    14   ar
    39    36    37    1
    40    24    25    1
@<TRIPOS>MOLECULE
*****
 37 40 0 0 0
SMALL
GASTEIGER

@<TRIPOS>ATOM
      1 C         143.2219  137.8019  156.8236 C.ar    1  UNL1        0.2245
      2 N         143.1748  139.1851  156.2452 N.ar    1  UNL1       -0.1912
      3 C         142.4179  140.2689  156.9540 C.ar    1  UNL1        0.2037
      4 N         141.7082  139.9696  158.2411 N.ar    1  UNL1       -0.1912
      5 C         141.7553  138.5864  158.8195 C.ar    1  UNL1        0.2240
      6 N         142.5122  137.5025  158.1107 N.ar    1  UNL1       -0.1806
      7 N         141.0456  138.2871  160.1066 N.pl3   1  UNL1       -0.2779
      8 C         139.5568  138.4469  160.1969 C.3     1  UNL1        0.0973
      9 C         138.8471  138.1475  161.4840 C.3     1  UNL1        0.0651
     10 C         139.6261  137.6884  162.6808 C.3     1  UNL1        0.1693
     11 C         141.1148  137.5286  162.5905 C.3     1  UNL1        0.0651
     12 C         141.8246  137.8280  161.3034 C.3     1  UNL1        0.0973
     13 O         138.9164  137.3891  163.9679 O.3     1  UNL1       -0.4791
     14 C         139.1264  138.2711  165.1629 C.ar    1  UNL1        0.1384
     15 C         140.3699  139.1028  165.2720 C.ar    1  UNL1        0.0368
     16 C         140.5799  139.9848  166.4669 C.ar    1  UNL1        0.0070
     17 C         139.5464  140.0351  167.5528 C.ar    1  UNL1        0.0716
     18 C         138.3027  139.2034  167.4438 C.ar    1  UNL1        0.0070
     19 C         138.0928  138.3214  166.2488 C.ar    1  UNL1        0.0368
     20 C         139.7563  140.9171  168.7478 C.3     1  UNL1        0.4186
     21 F         139.9663  141.7992  169.9428 F       1  UNL1       -0.1659
     22 F         140.8384  141.6530  168.0145 F       1  UNL1       -0.1659
     23 F         138.6743  140.1813  169.4811 F       1  UNL1       -0.1659
     24 N         143.9788  136.7180  156.1148 N.pl3   1  UNL1       -0.2826
     25 H         144.9614  136.7554  156.0651 H       1  UNL1        0.1551
     26 C         142.3800  133.1267  155.5702 C.ar    1  UNL1        0.0474
     27 C         141.7584  133.2956  154.2156 C.ar    1  UNL1        0.0144
     28 C         141.8769  134.6053  153.4941 C.ar    1  UNL1        0.0025
     29 C         142.6170  135.7461  154.1271 C.ar    1  UNL1        0.0144
     30 C         143.2387  135.5772  155.4817 C.ar    1  UNL1        0.0476
     31 C         143.1201  134.2675  156.2033 C.ar    1  UNL1        0.0051
     32 C         143.7418  134.0986  157.5580 C.3     1  UNL1        0.0336
     33 C         143.2914  129.5424  157.0097 C.3     1  UNL1        0.0949
     34 C         143.4099  130.8521  156.2881 C.2     1  UNL1        0.2266
     35 O         144.6769  131.1969  155.5628 O.2     1  UNL1       -0.2748
     36 N         142.2615  131.8170  156.2918 N.am    1  UNL1       -0.2841
     37 H         141.4300  131.5908  156.7678 H       1  UNL1        0.1548
@<TRIPOS>BOND
     1    33    34    1
     2    34    35    2
     3    34    36   am
     4    36    26    1
     5    26    27   ar
     6    27    28   ar
     7    28    29   ar
     8    29    30   ar
     9    30    24    1
    10    24     1    1
    11     1     2   ar
    12     2     3   ar
    13     3     4   ar
    14     4     5   ar
    15     5     7    1
    16     7     8    1
    17     8     9    1
    18     9    10    1
    19    10    13    1
    20    13    14    1
    21    14    15   ar
    22    15    16   ar
    23    16    17   ar
    24    17    20    1
    25    20    21    1
    26    20    22    1
    27    20    23    1
    28    17    18   ar
    29    18    19   ar
    30    10    11    1
    31    11    12    1
    32     5     6   ar
    33    30    31   ar
    34    31    32    1
    35    31    26   ar
    36     6     1   ar
    37    12     7    1
    38    19    14   ar
    39    36    37    1
    40    24    25    1
@<TRIPOS>MOLECULE
*****
 37 40 0 0 0
SMALL
GASTEIGER

@<TRIPOS>ATOM
      1 C         142.2875  136.6157  156.3324 C.ar    1  UNL1        0.2245
      2 N         140.9178  137.0772  155.9317 N.ar    1  UNL1       -0.1912
      3 C         140.1840  138.0734  156.7798 C.ar    1  UNL1        0.2037
      4 N         140.8201  138.6081  158.0286 N.ar    1  UNL1       -0.1912
      5 C         142.1900  138.1465  158.4293 C.ar    1  UNL1        0.2240
      6 N         142.9237  137.1503  157.5812 N.ar    1  UNL1       -0.1806
      7 N         142.8261  138.6812  159.6781 N.pl3   1  UNL1       -0.2779
      8 C         143.2555  137.7392  160.7635 C.3     1  UNL1        0.0973
      9 C         143.8916  138.2738  162.0123 C.3     1  UNL1        0.0651
     10 C         144.0982  139.7505  162.1757 C.3     1  UNL1        0.1693
     11 C         143.6688  140.6926  161.0903 C.3     1  UNL1        0.0651
     12 C         143.0327  140.1578  159.8414 C.3     1  UNL1        0.0973
     13 O         144.7343  140.2852  163.4245 O.3     1  UNL1       -0.4791
     14 C         144.0340  140.1423  164.7433 C.ar    1  UNL1        0.1384
     15 C         144.0009  138.8115  165.4346 C.ar    1  UNL1        0.0368
     16 C         143.3006  138.6686  166.7533 C.ar    1  UNL1        0.0070
     17 C         142.6334  139.8564  167.3808 C.ar    1  UNL1        0.0716
     18 C         142.6665  141.1873  166.6895 C.ar    1  UNL1        0.0070
     19 C         143.3668  141.3302  165.3708 C.ar    1  UNL1        0.0368
     20 C         141.9331  139.7135  168.6996 C.3     1  UNL1        0.4186
     21 F         141.2328  139.5706  170.0183 F       1  UNL1       -0.1659
     22 F         142.8007  138.5361  169.0327 F       1  UNL1       -0.1659
     23 F         141.0655  140.8909  168.3664 F       1  UNL1       -0.1659
     24 N         143.0213  135.6195  155.4843 N.pl3   1  UNL1       -0.2826
     25 H         143.7828  135.9095  154.9318 H       1  UNL1        0.1551
     26 C         142.6752  131.8061  156.5274 C.ar    1  UNL1        0.0474
     27 C         141.7417  131.3053  155.4654 C.ar    1  UNL1        0.0144
     28 C         141.2347  132.2426  154.4098 C.ar    1  UNL1        0.0025
     29 C         141.6612  133.6806  154.4160 C.ar    1  UNL1        0.0144
     30 C         142.5947  134.1814  155.4780 C.ar    1  UNL1        0.0476
     31 C         143.1017  133.2441  156.5336 C.ar    1  UNL1        0.0051
     32 C         144.0353  133.7449  157.5956 C.3     1  UNL1        0.0336
     33 C         144.8758  129.0577  158.3587 C.3     1  UNL1        0.0949
     34 C         144.3688  129.9950  157.3031 C.2     1  UNL1        0.2266
     35 O         145.0485  130.0585  155.9673 O.2     1  UNL1       -0.2748
     36 N         143.1822  130.8688  157.5830 N.am    1  UNL1       -0.2841
     37 H         142.7361  130.8271  158.4597 H       1  UNL1        0.1548
@<TRIPOS>BOND
     1    33    34    1
     2    34    35    2
     3    34    36   am
     4    36    26    1
     5    26    27   ar
     6    27    28   ar
     7    28    29   ar
     8    29    30   ar
     9    30    24    1
    10    24     1    1
    11     1     2   ar
    12     2     3   ar
    13     3     4   ar
    14     4     5   ar
    15     5     7    1
    16     7     8    1
    17     8     9    1
    18     9    10    1
    19    10    13    1
    20    13    14    1
    21    14    15   ar
    22    15    16   ar
    23    16    17   ar
    24    17    20    1
    25    20    21    1
    26    20    22    1
    27    20    23    1
    28    17    18   ar
    29    18    19   ar
    30    10    11    1
    31    11    12    1
    32     5     6   ar
    33    30    31   ar
    34    31    32    1
    35    31    26   ar
    36     6     1   ar
    37    12     7    1
    38    19    14   ar
    39    36    37    1
    40    24    25    1
@<TRIPOS>MOLECULE
*****
 37 40 0 0 0
SMALL
GASTEIGER

@<TRIPOS>ATOM
      1 C         138.2995  140.0045  163.4213 C.ar    1  UNL1        0.2245
      2 N         138.2738  138.9847  164.5209 N.ar    1  UNL1       -0.1912
      3 C         139.0946  137.7347  164.4039 C.ar    1  UNL1        0.2037
      4 N         139.9411  137.5044  163.1872 N.ar    1  UNL1       -0.1912
      5 C         139.9668  138.5242  162.0875 C.ar    1  UNL1        0.2240
      6 N         139.1461  139.7743  162.2045 N.ar    1  UNL1       -0.1806
      7 N         140.8133  138.2939  160.8708 N.pl3   1  UNL1       -0.2779
      8 C         140.2437  138.5349  159.5042 C.3     1  UNL1        0.0973
      9 C         141.0902  138.3046  158.2875 C.3     1  UNL1        0.0651
     10 C         142.5064  137.8334  158.4373 C.3     1  UNL1        0.1693
     11 C         143.0760  137.5924  159.8039 C.3     1  UNL1        0.0651
     12 C         142.2294  137.8227  161.0206 C.3     1  UNL1        0.0973
     13 O         143.3528  137.6031  157.2207 O.3     1  UNL1       -0.4791
     14 C         143.1362  136.3823  156.3763 C.ar    1  UNL1        0.1384
     15 C         142.7777  136.5268  154.9270 C.ar    1  UNL1        0.0368
     16 C         142.5610  135.3060  154.0827 C.ar    1  UNL1        0.0070
     17 C         142.7030  133.9408  154.6877 C.ar    1  UNL1        0.0716
     18 C         143.0615  133.7963  156.1371 C.ar    1  UNL1        0.0070
     19 C         143.2781  135.0171  156.9814 C.ar    1  UNL1        0.0368
     20 C         142.4863  132.7201  153.8434 C.3     1  UNL1        0.4186
     21 F         142.2697  131.4994  152.9991 F       1  UNL1       -0.1659
     22 F         141.2755  133.3589  153.2304 F       1  UNL1       -0.1659
     23 F         143.6972  132.0813  154.4564 F       1  UNL1       -0.1659
     24 N         137.4788  141.2546  163.5383 N.pl3   1  UNL1       -0.2826
     25 H         136.4991  141.1948  163.6156 H       1  UNL1        0.1551
     26 C         139.1586  144.6065  162.2371 C.ar    1  UNL1        0.0474
     27 C         139.4943  145.2779  163.5356 C.ar    1  UNL1        0.0144
     28 C         139.1582  144.6083  164.8351 C.ar    1  UNL1        0.0025
     29 C         138.4863  143.2672  164.8360 C.ar    1  UNL1        0.0144
     30 C         138.1506  142.5957  163.5374 C.ar    1  UNL1        0.0476
     31 C         138.4868  143.2654  162.2380 C.ar    1  UNL1        0.0051
     32 C         138.1510  142.5938  160.9393 C.3     1  UNL1        0.0336
     33 C         141.1198  145.6256  158.9409 C.3     1  UNL1        0.0949
     34 C         140.7837  144.9560  160.2404 C.2     1  UNL1        0.2266
     35 O         141.7366  143.9664  160.8426 O.2     1  UNL1       -0.2748
     36 N         139.4947  145.2761  160.9376 N.am    1  UNL1       -0.2841
     37 H         138.8693  145.9256  160.5423 H       1  UNL1        0.1548
@<TRIPOS>BOND
     1    33    34    1
     2    34    35    2
     3    34    36   am
     4    36    26    1
     5    26    27   ar
     6    27    28   ar
     7    28    29   ar
     8    29    30   ar
     9    30    24    1
    10    24     1    1
    11     1     2   ar
    12     2     3   ar
    13     3     4   ar
    14     4     5   ar
    15     5     7    1
    16     7     8    1
    17     8     9    1
    18     9    10    1
    19    10    13    1
    20    13    14    1
    21    14    15   ar
    22    15    16   ar
    23    16    17   ar
    24    17    20    1
    25    20    21    1
    26    20    22    1
    27    20    23    1
    28    17    18   ar
    29    18    19   ar
    30    10    11    1
    31    11    12    1
    32     5     6   ar
    33    30    31   ar
    34    31    32    1
    35    31    26   ar
    36     6     1   ar
    37    12     7    1
    38    19    14   ar
    39    36    37    1
    40    24    25    1
@<TRIPOS>MOLECULE
*****
 37 40 0 0 0
SMALL
GASTEIGER

@<TRIPOS>ATOM
      1 C         140.7712  143.9417  160.1843 C.ar    1  UNL1        0.2245
      2 N         141.5201  145.0996  159.5940 N.ar    1  UNL1       -0.1912
      3 C         141.2032  145.5678  158.2047 C.ar    1  UNL1        0.2037
      4 N         140.1375  144.8782  157.4056 N.ar    1  UNL1       -0.1912
      5 C         139.3886  143.7202  157.9958 C.ar    1  UNL1        0.2240
      6 N         139.7055  143.2520  159.3852 N.ar    1  UNL1       -0.1806
      7 N         138.3229  143.0306  157.1967 N.pl3   1  UNL1       -0.2779
      8 C         137.8707  141.6529  157.5809 C.3     1  UNL1        0.0973
      9 C         136.8050  140.9633  156.7818 C.3     1  UNL1        0.0651
     10 C         136.1915  141.6513  155.5984 C.3     1  UNL1        0.1693
     11 C         136.6437  143.0289  155.2142 C.3     1  UNL1        0.0651
     12 C         137.7095  143.7186  156.0134 C.3     1  UNL1        0.0973
     13 O         135.1258  140.9616  154.7993 O.3     1  UNL1       -0.4791
     14 C         133.8698  140.4922  155.4716 C.ar    1  UNL1        0.1384
     15 C         133.8412  139.1608  156.1619 C.ar    1  UNL1        0.0368
     16 C         132.5851  138.6914  156.8342 C.ar    1  UNL1        0.0070
     17 C         131.3577  139.5534  156.8163 C.ar    1  UNL1        0.0716
     18 C         131.3862  140.8848  156.1259 C.ar    1  UNL1        0.0070
     19 C         132.6423  141.3543  155.4536 C.ar    1  UNL1        0.0368
     20 C         130.1017  139.0840  157.4886 C.3     1  UNL1        0.4186
     21 F         128.8456  138.6145  158.1609 F       1  UNL1       -0.1659
     22 F         129.2847  139.9061  156.5364 F       1  UNL1       -0.1659
     23 F         130.9186  138.2619  158.4408 F       1  UNL1       -0.1659
     24 N         141.0880  143.4734  161.5737 N.pl3   1  UNL1       -0.2826
     25 H         142.0100  143.2217  161.8100 H       1  UNL1        0.1551
     26 C         138.4260  141.9649  164.1011 C.ar    1  UNL1        0.0474
     27 C         137.8244  143.2195  164.6614 C.ar    1  UNL1        0.0144
     28 C         138.3107  144.5588  164.1925 C.ar    1  UNL1        0.0025
     29 C         139.3985  144.6434  163.1633 C.ar    1  UNL1        0.0144
     30 C         140.0001  143.3888  162.6030 C.ar    1  UNL1        0.0476
     31 C         139.5139  142.0495  163.0719 C.ar    1  UNL1        0.0051
     32 C         140.1155  140.7949  162.5115 C.3     1  UNL1        0.0336
     33 C         138.0265  138.6736  166.2824 C.3     1  UNL1        0.0949
     34 C         138.5128  140.0129  165.8135 C.2     1  UNL1        0.2266
     35 O         139.5721  140.7395  166.5881 O.2     1  UNL1       -0.2748
     36 N         137.9398  140.6256  164.5700 N.am    1  UNL1       -0.2841
     37 H         137.2445  140.1487  164.0616 H       1  UNL1        0.1548
@<TRIPOS>BOND
     1    33    34    1
     2    34    35    2
     3    34    36   am
     4    36    26    1
     5    26    27   ar
     6    27    28   ar
     7    28    29   ar
     8    29    30   ar
     9    30    24    1
    10    24     1    1
    11     1     2   ar
    12     2     3   ar
    13     3     4   ar
    14     4     5   ar
    15     5     7    1
    16     7     8    1
    17     8     9    1
    18     9    10    1
    19    10    13    1
    20    13    14    1
    21    14    15   ar
    22    15    16   ar
    23    16    17   ar
    24    17    20    1
    25    20    21    1
    26    20    22    1
    27    20    23    1
    28    17    18   ar
    29    18    19   ar
    30    10    11    1
    31    11    12    1
    32     5     6   ar
    33    30    31   ar
    34    31    32    1
    35    31    26   ar
    36     6     1   ar
    37    12     7    1
    38    19    14   ar
    39    36    37    1
    40    24    25    1
