@<TRIPOS>MOLECULE
*****
 35 38 0 0 0
SMALL
GASTEIGER

@<TRIPOS>ATOM
      1 C         142.1524  140.1288  164.3246 C.2     1  UNL1        0.1397
      2 C         142.6603  140.4224  162.9441 C.2     1  UNL1        0.1355
      3 N         142.2234  141.6691  162.2335 N.pl3   1  UNL1       -0.1998
      4 C         141.2786  142.6222  162.9035 C.2     1  UNL1        0.3442
      5 N         140.7707  142.3286  164.2840 N.2     1  UNL1       -0.0580
      6 C         141.2076  141.0819  164.9945 C.3     1  UNL1        0.2692
      7 H         142.5567  141.8617  161.3275 H       1  UNL1        0.2983
      8 C         140.6997  140.7883  166.3751 C.ar    1  UNL1        0.0371
      9 C         139.4287  140.0130  166.5575 C.ar    1  UNL1        0.0030
     10 C         138.9207  139.7194  167.9380 C.ar    1  UNL1        0.0295
     11 C         139.6838  140.2012  169.1362 C.ar    1  UNL1        0.1406
     12 F         139.1759  139.9077  170.5167 F       1  UNL1       -0.2042
     13 C         140.9549  140.9766  168.9538 C.ar    1  UNL1        0.0362
     14 C         141.4628  141.2701  167.5732 C.ar    1  UNL1        0.0372
     15 BR        142.7339  142.0455  167.3908 Br      1  UNL1       -0.0491
     16 C         140.8417  143.8689  162.1930 C.ar    1  UNL1        0.1931
     17 N         141.0712  144.1848  160.7447 N.ar    1  UNL1       -0.2297
     18 C         140.4700  145.5297  160.4626 C.ar    1  UNL1        0.1067
     19 C         139.8688  146.0451  161.7366 C.ar    1  UNL1        0.0577
     20 S         140.0986  145.0187  162.8060 S.2     1  UNL1       -0.0586
     21 C         142.5893  138.8821  165.0351 C.2     1  UNL1        0.3447
     22 O         143.8985  138.8554  165.7666 O.2     1  UNL1       -0.2450
     23 O         141.7170  137.6620  165.0141 O.3     1  UNL1       -0.4455
     24 C         139.5181  137.6374  163.6303 C.3     1  UNL1        0.0513
     25 C         140.9721  137.2940  163.7652 C.3     1  UNL1        0.2089
     26 C         143.6051  139.4692  162.2740 C.3     1  UNL1        0.1405
     27 N         143.4786  139.1966  160.8045 N.3     1  UNL1       -0.2617
     28 C         142.7211  137.9930  160.3274 C.3     1  UNL1        0.1050
     29 C         142.5947  137.7204  158.8578 C.3     1  UNL1        0.1595
     30 O         143.2257  138.6513  157.8653 O.3     1  UNL1       -0.3508
     31 C         143.9831  139.8550  158.3423 C.3     1  UNL1        0.1603
     32 C         144.1096  140.1276  159.8119 C.3     1  UNL1        0.1050
     33 C         144.6141  140.7859  157.3498 C.3     1  UNL1        0.1680
     34 O         145.7821  140.3268  156.5282 O.3     1  UNL1       -0.3795
     35 H         146.5431  140.1680  157.1084 H       1  UNL1        0.2105
@<TRIPOS>BOND
     1    24    25    1
     2    25    23    1
     3    23    21    1
     4    21    22    2
     5    21     1    1
     6     1     2    2
     7     2    26    1
     8    26    27    1
     9    27    28    1
    10    28    29    1
    11    29    30    1
    12    30    31    1
    13    31    33    1
    14    33    34    1
    15    31    32    1
    16     2     3    1
    17     3     4    1
    18     4    16    1
    19    16    17   ar
    20    17    18   ar
    21    18    19   ar
    22    19    20   ar
    23     4     5    2
    24     5     6    1
    25     6     8    1
    26     8     9   ar
    27     9    10   ar
    28    10    11   ar
    29    11    12    1
    30    11    13   ar
    31    13    14   ar
    32    14    15    1
    33     6     1    1
    34    14     8   ar
    35    32    27    1
    36    20    16   ar
    37    34    35    1
    38     3     7    1
@<TRIPOS>MOLECULE
*****
 35 38 0 0 0
SMALL
GASTEIGER

@<TRIPOS>ATOM
      1 C         142.0632  140.1327  164.1881 C.2     1  UNL1        0.1397
      2 C         142.4076  140.4277  162.7583 C.2     1  UNL1        0.1355
      3 N         141.9444  141.7054  162.1235 N.pl3   1  UNL1       -0.1998
      4 C         141.1369  142.6881  162.9185 C.2     1  UNL1        0.3442
      5 N         140.7925  142.3932  164.3483 N.2     1  UNL1       -0.0580
      6 C         141.2557  141.1155  164.9831 C.3     1  UNL1        0.2692
      7 H         142.1705  141.8989  161.1851 H       1  UNL1        0.2983
      8 C         140.9113  140.8206  166.4130 C.ar    1  UNL1        0.0371
      9 C         141.8907  141.1434  167.5023 C.ar    1  UNL1        0.0030
     10 C         141.5463  140.8486  168.9321 C.ar    1  UNL1        0.0295
     11 C         140.2225  140.2308  169.2727 C.ar    1  UNL1        0.1406
     12 F         139.8781  139.9359  170.7025 F       1  UNL1       -0.2042
     13 C         139.2431  139.9080  168.1834 C.ar    1  UNL1        0.0362
     14 C         139.5875  140.2029  166.7535 C.ar    1  UNL1        0.0372
     15 BR        138.6081  139.8800  165.6642 Br      1  UNL1       -0.0491
     16 C         140.6738  143.9658  162.2837 C.ar    1  UNL1        0.1931
     17 N         139.8910  145.0527  162.9589 N.ar    1  UNL1       -0.2297
     18 C         139.6455  146.1396  161.9547 C.ar    1  UNL1        0.1067
     19 C         140.2766  145.7244  160.6588 C.ar    1  UNL1        0.0577
     20 S         140.9121  144.3810  160.8621 S.2     1  UNL1       -0.0586
     21 C         142.5264  138.8550  164.8229 C.2     1  UNL1        0.3447
     22 O         143.9083  138.7615  165.3986 O.2     1  UNL1       -0.2450
     23 O         141.6076  137.6709  164.8822 O.3     1  UNL1       -0.4455
     24 C         139.7878  137.5395  163.0325 C.3     1  UNL1        0.0513
     25 C         141.0855  137.0625  163.6144 C.3     1  UNL1        0.2089
     26 C         143.2152  139.4449  161.9633 C.3     1  UNL1        0.1405
     27 N         143.0043  139.3243  160.4831 N.3     1  UNL1       -0.2617
     28 C         141.9075  138.4506  159.9505 C.3     1  UNL1        0.1050
     29 C         141.6966  138.3301  158.4702 C.3     1  UNL1        0.1595
     30 O         142.5826  139.0831  157.5227 O.3     1  UNL1       -0.3508
     31 C         143.6794  139.9568  158.0553 C.3     1  UNL1        0.1603
     32 C         143.8903  140.0774  159.5355 C.3     1  UNL1        0.1050
     33 C         144.5653  140.7099  157.1077 C.3     1  UNL1        0.1680
     34 O         145.7306  140.0204  156.4620 O.3     1  UNL1       -0.3795
     35 H         146.3825  139.7836  157.1402 H       1  UNL1        0.2105
@<TRIPOS>BOND
     1    24    25    1
     2    25    23    1
     3    23    21    1
     4    21    22    2
     5    21     1    1
     6     1     2    2
     7     2    26    1
     8    26    27    1
     9    27    28    1
    10    28    29    1
    11    29    30    1
    12    30    31    1
    13    31    33    1
    14    33    34    1
    15    31    32    1
    16     2     3    1
    17     3     4    1
    18     4    16    1
    19    16    17   ar
    20    17    18   ar
    21    18    19   ar
    22    19    20   ar
    23     4     5    2
    24     5     6    1
    25     6     8    1
    26     8     9   ar
    27     9    10   ar
    28    10    11   ar
    29    11    12    1
    30    11    13   ar
    31    13    14   ar
    32    14    15    1
    33     6     1    1
    34    14     8   ar
    35    32    27    1
    36    20    16   ar
    37    34    35    1
    38     3     7    1
@<TRIPOS>MOLECULE
*****
 35 38 0 0 0
SMALL
GASTEIGER

@<TRIPOS>ATOM
      1 C         142.0746  140.1153  164.1589 C.2     1  UNL1        0.1397
      2 C         142.5181  140.4071  162.7561 C.2     1  UNL1        0.1355
      3 N         142.0715  141.6668  162.0750 N.pl3   1  UNL1       -0.1998
      4 C         141.1813  142.6345  162.7968 C.2     1  UNL1        0.3442
      5 N         140.7378  142.3427  164.1997 N.2     1  UNL1       -0.0580
      6 C         141.1845  141.0830  164.8807 C.3     1  UNL1        0.2692
      7 H         142.3626  141.8583  161.1543 H       1  UNL1        0.2983
      8 C         140.7409  140.7912  166.2837 C.ar    1  UNL1        0.0371
      9 C         139.4784  140.0182  166.5256 C.ar    1  UNL1        0.0030
     10 C         139.0348  139.7263  167.9285 C.ar    1  UNL1        0.0295
     11 C         139.8538  140.2075  169.0895 C.ar    1  UNL1        0.1406
     12 F         139.4102  139.9157  170.4923 F       1  UNL1       -0.2042
     13 C         141.1163  140.9805  168.8475 C.ar    1  UNL1        0.0362
     14 C         141.5598  141.2724  167.4446 C.ar    1  UNL1        0.0372
     15 BR        142.8223  142.0454  167.2027 Br      1  UNL1       -0.0491
     16 C         140.7347  143.8942  162.1158 C.ar    1  UNL1        0.1931
     17 N         140.8800  144.2063  160.6558 N.ar    1  UNL1       -0.2297
     18 C         140.2995  145.5679  160.4128 C.ar    1  UNL1        0.1067
     19 C         139.7954  146.0973  161.7226 C.ar    1  UNL1        0.0577
     20 S         140.0644  145.0629  162.7751 S.2     1  UNL1       -0.0586
     21 C         142.5212  138.8556  164.8400 C.2     1  UNL1        0.3447
     22 O         143.8549  138.8055  165.5246 O.2     1  UNL1       -0.2450
     23 O         141.6341  137.6461  164.8364 O.3     1  UNL1       -0.4455
     24 C         139.3270  137.6440  163.6418 C.3     1  UNL1        0.0513
     25 C         140.7948  137.3350  163.6327 C.3     1  UNL1        0.2089
     26 C         143.4082  139.4393  162.0342 C.3     1  UNL1        0.1405
     27 N         143.4433  139.4276  160.5347 N.3     1  UNL1       -0.2617
     28 C         144.0686  140.5697  159.7901 C.3     1  UNL1        0.1050
     29 C         144.1036  140.5579  158.2905 C.3     1  UNL1        0.1595
     30 O         143.5133  139.4040  157.5356 O.3     1  UNL1       -0.3508
     31 C         142.8880  138.2618  158.2802 C.3     1  UNL1        0.1603
     32 C         142.8530  138.2736  159.7797 C.3     1  UNL1        0.1050
     33 C         142.2977  137.1079  157.5253 C.3     1  UNL1        0.1680
     34 O         143.1961  136.1271  156.8316 O.3     1  UNL1       -0.3795
     35 H         143.6634  136.5727  156.1077 H       1  UNL1        0.2105
@<TRIPOS>BOND
     1    24    25    1
     2    25    23    1
     3    23    21    1
     4    21    22    2
     5    21     1    1
     6     1     2    2
     7     2    26    1
     8    26    27    1
     9    27    28    1
    10    28    29    1
    11    29    30    1
    12    30    31    1
    13    31    33    1
    14    33    34    1
    15    31    32    1
    16     2     3    1
    17     3     4    1
    18     4    16    1
    19    16    17   ar
    20    17    18   ar
    21    18    19   ar
    22    19    20   ar
    23     4     5    2
    24     5     6    1
    25     6     8    1
    26     8     9   ar
    27     9    10   ar
    28    10    11   ar
    29    11    12    1
    30    11    13   ar
    31    13    14   ar
    32    14    15    1
    33     6     1    1
    34    14     8   ar
    35    32    27    1
    36    20    16   ar
    37    34    35    1
    38     3     7    1
@<TRIPOS>MOLECULE
*****
 35 38 0 0 0
SMALL
GASTEIGER

@<TRIPOS>ATOM
      1 C         139.6235  141.1249  161.2090 C.2     1  UNL1        0.1397
      2 C         139.7767  140.3856  159.9129 C.2     1  UNL1        0.1355
      3 N         139.4150  141.0551  158.6202 N.pl3   1  UNL1       -0.1998
      4 C         138.9000  142.4639  158.6238 C.2     1  UNL1        0.3442
      5 N         138.7468  143.2032  159.9199 N.2     1  UNL1       -0.0580
      6 C         139.1085  142.5336  161.2125 C.3     1  UNL1        0.2692
      7 H         139.5156  140.5699  157.7695 H       1  UNL1        0.2983
      8 C         138.9552  143.2730  162.5087 C.ar    1  UNL1        0.0371
      9 C         137.6687  143.1847  163.2748 C.ar    1  UNL1        0.0030
     10 C         137.5154  143.9240  164.5709 C.ar    1  UNL1        0.0295
     11 C         138.6487  144.7516  165.1009 C.ar    1  UNL1        0.1406
     12 F         138.4954  145.4908  166.3970 F       1  UNL1       -0.2042
     13 C         139.9352  144.8398  164.3348 C.ar    1  UNL1        0.0362
     14 C         140.0885  144.1005  163.0386 C.ar    1  UNL1        0.0372
     15 BR        141.3750  144.1888  162.2724 Br      1  UNL1       -0.0491
     16 C         138.5382  143.1335  157.3311 C.ar    1  UNL1        0.1931
     17 N         137.2550  142.9558  156.5751 N.ar    1  UNL1       -0.2297
     18 C         137.3198  143.8107  155.3443 C.ar    1  UNL1        0.1067
     19 C         138.6432  144.5168  155.3397 C.ar    1  UNL1        0.0577
     20 S         139.3962  144.0982  156.5676 S.2     1  UNL1       -0.0586
     21 C         139.9853  140.4553  162.5016 C.2     1  UNL1        0.3447
     22 O         141.3906  140.5348  163.0198 O.2     1  UNL1       -0.2450
     23 O         138.9416  139.7063  163.2760 O.3     1  UNL1       -0.4455
     24 C         139.0952  137.6970  164.9160 C.3     1  UNL1        0.0513
     25 C         139.0980  138.2338  163.5152 C.3     1  UNL1        0.2089
     26 C         140.2918  138.9767  159.9093 C.3     1  UNL1        0.1405
     27 N         140.8145  138.3725  158.6398 N.3     1  UNL1       -0.2617
     28 C         142.2929  138.2315  158.4295 C.3     1  UNL1        0.1050
     29 C         142.8156  137.6272  157.1600 C.3     1  UNL1        0.1595
     30 O         141.8599  137.1639  156.1008 O.3     1  UNL1       -0.3508
     31 C         140.3814  137.3049  156.3111 C.3     1  UNL1        0.1603
     32 C         139.8587  137.9092  157.5806 C.3     1  UNL1        0.1050
     33 C         139.4256  136.8417  155.2520 C.3     1  UNL1        0.1680
     34 O         137.9709  137.1948  155.3481 O.3     1  UNL1       -0.3795
     35 H         137.5820  136.7559  156.1208 H       1  UNL1        0.2105
@<TRIPOS>BOND
     1    24    25    1
     2    25    23    1
     3    23    21    1
     4    21    22    2
     5    21     1    1
     6     1     2    2
     7     2    26    1
     8    26    27    1
     9    27    28    1
    10    28    29    1
    11    29    30    1
    12    30    31    1
    13    31    33    1
    14    33    34    1
    15    31    32    1
    16     2     3    1
    17     3     4    1
    18     4    16    1
    19    16    17   ar
    20    17    18   ar
    21    18    19   ar
    22    19    20   ar
    23     4     5    2
    24     5     6    1
    25     6     8    1
    26     8     9   ar
    27     9    10   ar
    28    10    11   ar
    29    11    12    1
    30    11    13   ar
    31    13    14   ar
    32    14    15    1
    33     6     1    1
    34    14     8   ar
    35    32    27    1
    36    20    16   ar
    37    34    35    1
    38     3     7    1
@<TRIPOS>MOLECULE
*****
 35 38 0 0 0
SMALL
GASTEIGER

@<TRIPOS>ATOM
      1 C         140.0438  140.9156  160.9730 C.2     1  UNL1        0.1397
      2 C         140.2033  140.0591  159.7520 C.2     1  UNL1        0.1355
      3 N         139.3251  140.2853  158.5572 N.pl3   1  UNL1       -0.1998
      4 C         138.2873  141.3680  158.5835 C.2     1  UNL1        0.3442
      5 N         138.1278  142.2245  159.8045 N.2     1  UNL1       -0.0580
      6 C         139.0061  141.9983  160.9993 C.3     1  UNL1        0.2692
      7 H         139.4298  139.7231  157.7558 H       1  UNL1        0.2983
      8 C         138.8465  142.8548  162.2203 C.ar    1  UNL1        0.0371
      9 C         137.9193  142.4284  163.3196 C.ar    1  UNL1        0.0030
     10 C         137.7598  143.2849  164.5406 C.ar    1  UNL1        0.0295
     11 C         138.5274  144.5679  164.6624 C.ar    1  UNL1        0.1406
     12 F         138.3678  145.4244  165.8834 F       1  UNL1       -0.2042
     13 C         139.4546  144.9943  163.5631 C.ar    1  UNL1        0.0362
     14 C         139.6141  144.1378  162.3420 C.ar    1  UNL1        0.0372
     15 BR        140.5413  144.5642  161.2427 Br      1  UNL1       -0.0491
     16 C         137.4090  141.5942  157.3887 C.ar    1  UNL1        0.1931
     17 N         136.3366  140.6690  156.8949 N.ar    1  UNL1       -0.2297
     18 C         135.7138  141.2883  155.6790 C.ar    1  UNL1        0.1067
     19 C         136.4013  142.5963  155.4212 C.ar    1  UNL1        0.0577
     20 S         137.4490  142.7853  156.4779 S.2     1  UNL1       -0.0586
     21 C         140.9221  140.6893  162.1678 C.2     1  UNL1        0.3447
     22 O         142.1933  141.4703  162.3228 O.2     1  UNL1       -0.2450
     23 O         140.5291  139.6822  163.2076 O.3     1  UNL1       -0.4455
     24 C         141.0954  137.1634  163.4993 C.3     1  UNL1        0.0513
     25 C         141.4926  138.6056  163.6109 C.3     1  UNL1        0.2089
     26 C         141.2411  138.9763  159.7257 C.3     1  UNL1        0.1405
     27 N         142.1910  138.8757  158.5692 N.3     1  UNL1       -0.2617
     28 C         142.9783  140.0777  158.1386 C.3     1  UNL1        0.1050
     29 C         143.9282  139.9771  156.9820 C.3     1  UNL1        0.1595
     30 O         144.0908  138.6746  156.2561 O.3     1  UNL1       -0.3508
     31 C         143.3035  137.4726  156.6867 C.3     1  UNL1        0.1603
     32 C         142.3536  137.5732  157.8432 C.3     1  UNL1        0.1050
     33 C         143.4661  136.1701  155.9608 C.3     1  UNL1        0.1680
     34 O         144.6476  135.9548  155.0620 O.3     1  UNL1       -0.3795
     35 H         144.5911  136.5572  154.3038 H       1  UNL1        0.2105
@<TRIPOS>BOND
     1    24    25    1
     2    25    23    1
     3    23    21    1
     4    21    22    2
     5    21     1    1
     6     1     2    2
     7     2    26    1
     8    26    27    1
     9    27    28    1
    10    28    29    1
    11    29    30    1
    12    30    31    1
    13    31    33    1
    14    33    34    1
    15    31    32    1
    16     2     3    1
    17     3     4    1
    18     4    16    1
    19    16    17   ar
    20    17    18   ar
    21    18    19   ar
    22    19    20   ar
    23     4     5    2
    24     5     6    1
    25     6     8    1
    26     8     9   ar
    27     9    10   ar
    28    10    11   ar
    29    11    12    1
    30    11    13   ar
    31    13    14   ar
    32    14    15    1
    33     6     1    1
    34    14     8   ar
    35    32    27    1
    36    20    16   ar
    37    34    35    1
    38     3     7    1
@<TRIPOS>MOLECULE
*****
 35 38 0 0 0
SMALL
GASTEIGER

@<TRIPOS>ATOM
      1 C         142.3406  140.4159  161.0986 C.2     1  UNL1        0.1397
      2 C         143.0905  140.9866  159.9316 C.2     1  UNL1        0.1355
      3 N         143.3008  140.1594  158.6981 N.pl3   1  UNL1       -0.1998
      4 C         142.7613  138.7614  158.6317 C.2     1  UNL1        0.3442
      5 N         142.0114  138.1906  159.7987 N.2     1  UNL1       -0.0580
      6 C         141.8011  139.0179  161.0321 C.3     1  UNL1        0.2692
      7 H         143.7930  140.5340  157.9322 H       1  UNL1        0.2983
      8 C         141.0512  138.4471  162.1992 C.ar    1  UNL1        0.0371
      9 C         141.7983  137.7918  163.3227 C.ar    1  UNL1        0.0030
     10 C         141.0485  137.2210  164.4897 C.ar    1  UNL1        0.0295
     11 C         139.5514  137.3056  164.5332 C.ar    1  UNL1        0.1406
     12 F         138.8016  136.7348  165.7002 F       1  UNL1       -0.2042
     13 C         138.8043  137.9609  163.4097 C.ar    1  UNL1        0.0362
     14 C         139.5542  138.5317  162.2426 C.ar    1  UNL1        0.0372
     15 BR        138.8071  139.1871  161.1191 Br      1  UNL1       -0.0491
     16 C         142.9716  137.9341  157.3983 C.ar    1  UNL1        0.1931
     17 N         143.1161  136.4418  157.3515 N.ar    1  UNL1       -0.2297
     18 C         143.3082  136.0392  155.9194 C.ar    1  UNL1        0.1067
     19 C         143.2825  137.2828  155.0810 C.ar    1  UNL1        0.0577
     20 S         143.0745  138.4538  155.9950 S.2     1  UNL1       -0.0586
     21 C         142.1303  141.2432  162.3320 C.2     1  UNL1        0.3447
     22 O         140.8128  141.9215  162.5645 O.2     1  UNL1       -0.2450
     23 O         143.2374  141.3922  163.3330 O.3     1  UNL1       -0.4455
     24 C         144.9226  139.6604  164.2876 C.3     1  UNL1        0.0513
     25 C         144.4936  140.5855  163.1875 C.3     1  UNL1        0.2089
     26 C         143.6301  142.3847  159.9980 C.3     1  UNL1        0.1405
     27 N         142.7489  143.5462  159.6453 N.3     1  UNL1       -0.2617
     28 C         142.7341  144.0778  158.2428 C.3     1  UNL1        0.1050
     29 C         141.8529  145.2394  157.8902 C.3     1  UNL1        0.1595
     30 O         140.9865  145.8693  158.9401 O.3     1  UNL1       -0.3508
     31 C         141.0013  145.3378  160.3427 C.3     1  UNL1        0.1603
     32 C         141.8824  144.1763  160.6953 C.3     1  UNL1        0.1050
     33 C         140.1349  145.9678  161.3927 C.3     1  UNL1        0.1680
     34 O         138.9417  146.7830  160.9904 O.3     1  UNL1       -0.3795
     35 H         139.2373  147.5804  160.5240 H       1  UNL1        0.2105
@<TRIPOS>BOND
     1    24    25    1
     2    25    23    1
     3    23    21    1
     4    21    22    2
     5    21     1    1
     6     1     2    2
     7     2    26    1
     8    26    27    1
     9    27    28    1
    10    28    29    1
    11    29    30    1
    12    30    31    1
    13    31    33    1
    14    33    34    1
    15    31    32    1
    16     2     3    1
    17     3     4    1
    18     4    16    1
    19    16    17   ar
    20    17    18   ar
    21    18    19   ar
    22    19    20   ar
    23     4     5    2
    24     5     6    1
    25     6     8    1
    26     8     9   ar
    27     9    10   ar
    28    10    11   ar
    29    11    12    1
    30    11    13   ar
    31    13    14   ar
    32    14    15    1
    33     6     1    1
    34    14     8   ar
    35    32    27    1
    36    20    16   ar
    37    34    35    1
    38     3     7    1
@<TRIPOS>MOLECULE
*****
 35 38 0 0 0
SMALL
GASTEIGER

@<TRIPOS>ATOM
      1 C         140.4941  141.1883  161.0411 C.2     1  UNL1        0.1397
      2 C         140.7187  140.3704  159.8040 C.2     1  UNL1        0.1355
      3 N         139.7827  140.4999  158.6391 N.pl3   1  UNL1       -0.1998
      4 C         138.6221  141.4474  158.7112 C.2     1  UNL1        0.3442
      5 N         138.3975  142.2653  159.9483 N.2     1  UNL1       -0.0580
      6 C         139.3335  142.1358  161.1133 C.3     1  UNL1        0.2692
      7 H         139.9301  139.9630  157.8271 H       1  UNL1        0.2983
      8 C         139.1088  142.9538  162.3504 C.ar    1  UNL1        0.0371
      9 C         139.7882  144.2821  162.5048 C.ar    1  UNL1        0.0030
     10 C         139.5636  145.1001  163.7419 C.ar    1  UNL1        0.0295
     11 C         138.6595  144.5898  164.8246 C.ar    1  UNL1        0.1406
     12 F         138.4349  145.4078  166.0617 F       1  UNL1       -0.2042
     13 C         137.9801  143.2614  164.6702 C.ar    1  UNL1        0.0362
     14 C         138.2047  142.4434  163.4330 C.ar    1  UNL1        0.0372
     15 BR        137.5253  141.1151  163.2786 Br      1  UNL1       -0.0491
     16 C         137.6861  141.5769  157.5462 C.ar    1  UNL1        0.1931
     17 N         136.6733  140.5594  157.1115 N.ar    1  UNL1       -0.2297
     18 C         135.9598  141.1003  155.9080 C.ar    1  UNL1        0.1067
     19 C         136.5316  142.4521  155.5990 C.ar    1  UNL1        0.0577
     20 S         137.5985  142.7467  156.6114 S.2     1  UNL1       -0.0586
     21 C         141.4301  141.0588  162.2061 C.2     1  UNL1        0.3447
     22 O         142.7289  141.8090  162.2116 O.2     1  UNL1       -0.2450
     23 O         141.0672  140.1790  163.3655 O.3     1  UNL1       -0.4455
     24 C         139.7971  137.9734  162.8437 C.3     1  UNL1        0.0513
     25 C         141.0660  138.6878  163.2039 C.3     1  UNL1        0.2089
     26 C         141.8793  139.4228  159.7318 C.3     1  UNL1        0.1405
     27 N         142.7510  139.3961  158.5114 N.3     1  UNL1       -0.2617
     28 C         142.6006  138.2929  157.5063 C.3     1  UNL1        0.1050
     29 C         143.4723  138.2662  156.2859 C.3     1  UNL1        0.1595
     30 O         144.4943  139.3429  156.0705 O.3     1  UNL1       -0.3508
     31 C         144.6446  140.4461  157.0756 C.3     1  UNL1        0.1603
     32 C         143.7730  140.4728  158.2960 C.3     1  UNL1        0.1050
     33 C         145.6666  141.5228  156.8602 C.3     1  UNL1        0.1680
     34 O         145.3860  142.9248  157.3137 O.3     1  UNL1       -0.3795
     35 H         144.6524  143.2914  156.7957 H       1  UNL1        0.2105
@<TRIPOS>BOND
     1    24    25    1
     2    25    23    1
     3    23    21    1
     4    21    22    2
     5    21     1    1
     6     1     2    2
     7     2    26    1
     8    26    27    1
     9    27    28    1
    10    28    29    1
    11    29    30    1
    12    30    31    1
    13    31    33    1
    14    33    34    1
    15    31    32    1
    16     2     3    1
    17     3     4    1
    18     4    16    1
    19    16    17   ar
    20    17    18   ar
    21    18    19   ar
    22    19    20   ar
    23     4     5    2
    24     5     6    1
    25     6     8    1
    26     8     9   ar
    27     9    10   ar
    28    10    11   ar
    29    11    12    1
    30    11    13   ar
    31    13    14   ar
    32    14    15    1
    33     6     1    1
    34    14     8   ar
    35    32    27    1
    36    20    16   ar
    37    34    35    1
    38     3     7    1
@<TRIPOS>MOLECULE
*****
 35 38 0 0 0
SMALL
GASTEIGER

@<TRIPOS>ATOM
      1 C         141.9339  143.3961  160.4918 C.2     1  UNL1        0.1397
      2 C         142.7942  143.4161  159.2632 C.2     1  UNL1        0.1355
      3 N         142.3758  144.2195  158.0676 N.pl3   1  UNL1       -0.1998
      4 C         141.0972  145.0029  158.1005 C.2     1  UNL1        0.3442
      5 N         140.2368  144.9829  159.3291 N.2     1  UNL1       -0.0580
      6 C         140.6552  144.1795  160.5247 C.3     1  UNL1        0.2692
      7 H         142.9405  144.2326  157.2613 H       1  UNL1        0.2983
      8 C         139.7947  144.1595  161.7533 C.ar    1  UNL1        0.0371
      9 C         140.0933  145.0877  162.8931 C.ar    1  UNL1        0.0030
     10 C         139.2330  145.0678  164.1217 C.ar    1  UNL1        0.0295
     11 C         138.0740  144.1196  164.2104 C.ar    1  UNL1        0.1406
     12 F         137.2136  144.0997  165.4389 F       1  UNL1       -0.2042
     13 C         137.7754  143.1914  163.0705 C.ar    1  UNL1        0.0362
     14 C         138.6358  143.2114  161.8419 C.ar    1  UNL1        0.0372
     15 BR        138.3372  142.2832  160.7021 Br      1  UNL1       -0.0491
     16 C         140.6788  145.8063  156.9049 C.ar    1  UNL1        0.1931
     17 N         139.5873  146.8347  156.8717 N.ar    1  UNL1       -0.2297
     18 C         139.5124  147.3864  155.4788 C.ar    1  UNL1        0.1067
     19 C         140.5576  146.6990  154.6512 C.ar    1  UNL1        0.0577
     20 S         141.2785  145.7225  155.5326 S.2     1  UNL1       -0.0586
     21 C         142.3522  142.5926  161.6874 C.2     1  UNL1        0.3447
     22 O         141.6223  141.3291  162.0347 O.2     1  UNL1       -0.2450
     23 O         143.5005  143.0527  162.5357 O.3     1  UNL1       -0.4455
     24 C         143.6068  145.1293  164.0935 C.3     1  UNL1        0.0513
     25 C         143.7487  144.5192  162.7305 C.3     1  UNL1        0.2089
     26 C         144.0730  142.6326  159.2302 C.3     1  UNL1        0.1405
     27 N         144.2883  141.5926  158.1710 N.3     1  UNL1       -0.2617
     28 C         145.3897  141.7615  157.1669 C.3     1  UNL1        0.1050
     29 C         145.6050  140.7214  156.1077 C.3     1  UNL1        0.1595
     30 O         144.7188  139.5125  156.0526 O.3     1  UNL1       -0.3508
     31 C         143.6174  139.3436  157.0567 C.3     1  UNL1        0.1603
     32 C         143.4021  140.3836  158.1159 C.3     1  UNL1        0.1050
     33 C         142.7312  138.1346  157.0016 C.3     1  UNL1        0.1680
     34 O         143.3338  136.7612  157.0267 O.3     1  UNL1       -0.3795
     35 H         143.8511  136.6202  156.2183 H       1  UNL1        0.2105
@<TRIPOS>BOND
     1    24    25    1
     2    25    23    1
     3    23    21    1
     4    21    22    2
     5    21     1    1
     6     1     2    2
     7     2    26    1
     8    26    27    1
     9    27    28    1
    10    28    29    1
    11    29    30    1
    12    30    31    1
    13    31    33    1
    14    33    34    1
    15    31    32    1
    16     2     3    1
    17     3     4    1
    18     4    16    1
    19    16    17   ar
    20    17    18   ar
    21    18    19   ar
    22    19    20   ar
    23     4     5    2
    24     5     6    1
    25     6     8    1
    26     8     9   ar
    27     9    10   ar
    28    10    11   ar
    29    11    12    1
    30    11    13   ar
    31    13    14   ar
    32    14    15    1
    33     6     1    1
    34    14     8   ar
    35    32    27    1
    36    20    16   ar
    37    34    35    1
    38     3     7    1
@<TRIPOS>MOLECULE
*****
 35 38 0 0 0
SMALL
GASTEIGER

@<TRIPOS>ATOM
      1 C         142.8355  143.1392  160.1654 C.2     1  UNL1        0.1397
      2 C         142.5124  143.9131  158.9217 C.2     1  UNL1        0.1355
      3 N         143.2941  143.6726  157.6643 N.pl3   1  UNL1       -0.1998
      4 C         144.3990  142.6581  157.6506 C.2     1  UNL1        0.3442
      5 N         144.7221  141.8843  158.8942 N.2     1  UNL1       -0.0580
      6 C         143.9404  142.1248  160.1516 C.3     1  UNL1        0.2692
      7 H         143.0821  144.1805  156.8481 H       1  UNL1        0.2983
      8 C         144.2635  141.3508  161.3953 C.ar    1  UNL1        0.0371
      9 C         145.1963  141.9294  162.4175 C.ar    1  UNL1        0.0030
     10 C         145.5195  141.1556  163.6611 C.ar    1  UNL1        0.0295
     11 C         144.9099  139.8030  163.8825 C.ar    1  UNL1        0.1406
     12 F         145.2330  139.0291  165.1262 F       1  UNL1       -0.2042
     13 C         143.9770  139.2244  162.8603 C.ar    1  UNL1        0.0362
     14 C         143.6539  139.9983  161.6166 C.ar    1  UNL1        0.0372
     15 BR        142.7210  139.4197  160.5943 Br      1  UNL1       -0.0491
     16 C         145.1807  142.4176  156.3932 C.ar    1  UNL1        0.1931
     17 N         144.6191  142.3583  155.0036 N.ar    1  UNL1       -0.2297
     18 C         145.7526  142.0982  154.0562 C.ar    1  UNL1        0.1067
     19 C         147.0148  141.9968  154.8603 C.ar    1  UNL1        0.0577
     20 S         146.6613  142.1942  156.3046 S.2     1  UNL1       -0.0586
     21 C         142.0538  143.3797  161.4228 C.2     1  UNL1        0.3447
     22 O         140.9420  142.4480  161.8045 O.2     1  UNL1       -0.2450
     23 O         142.3839  144.5519  162.2984 O.3     1  UNL1       -0.4455
     24 C         140.1710  145.9113  162.2234 C.3     1  UNL1        0.0513
     25 C         141.2878  145.2898  163.0086 C.3     1  UNL1        0.2089
     26 C         141.4075  144.9276  158.9355 C.3     1  UNL1        0.1405
     27 N         140.4223  144.9788  157.8056 N.3     1  UNL1       -0.2617
     28 C         139.6787  143.7401  157.4021 C.3     1  UNL1        0.1050
     29 C         138.6934  143.7914  156.2722 C.3     1  UNL1        0.1595
     30 O         138.4518  145.0813  155.5458 O.3     1  UNL1       -0.3508
     31 C         139.1954  146.3200  155.9492 C.3     1  UNL1        0.1603
     32 C         140.1806  146.2688  157.0791 C.3     1  UNL1        0.1050
     33 C         138.9538  147.6099  155.2228 C.3     1  UNL1        0.1680
     34 O         139.4519  147.7847  153.8187 O.3     1  UNL1       -0.3795
     35 H         140.4219  147.7763  153.8164 H       1  UNL1        0.2105
@<TRIPOS>BOND
     1    24    25    1
     2    25    23    1
     3    23    21    1
     4    21    22    2
     5    21     1    1
     6     1     2    2
     7     2    26    1
     8    26    27    1
     9    27    28    1
    10    28    29    1
    11    29    30    1
    12    30    31    1
    13    31    33    1
    14    33    34    1
    15    31    32    1
    16     2     3    1
    17     3     4    1
    18     4    16    1
    19    16    17   ar
    20    17    18   ar
    21    18    19   ar
    22    19    20   ar
    23     4     5    2
    24     5     6    1
    25     6     8    1
    26     8     9   ar
    27     9    10   ar
    28    10    11   ar
    29    11    12    1
    30    11    13   ar
    31    13    14   ar
    32    14    15    1
    33     6     1    1
    34    14     8   ar
    35    32    27    1
    36    20    16   ar
    37    34    35    1
    38     3     7    1
