@<TRIPOS>MOLECULE
*****
 33 37 0 0 0
SMALL
GASTEIGER

@<TRIPOS>ATOM
      1 N         142.8577  138.6106  159.6725 N.pl3   1  UNL1       -0.3063
      2 C         143.9814  138.7515  160.6562 C.3     1  UNL1        0.0909
      3 C         143.4173  138.5672  162.0338 C.3     1  UNL1        0.0231
      4 C         141.9449  138.3125  161.9016 C.3     1  UNL1        0.0226
      5 C         140.4927  138.0708  161.6141 C.3     1  UNL1        0.0191
      6 C         139.5345  137.8313  162.7430 C.3     1  UNL1        0.0722
      7 N         140.0285  137.8335  164.1593 N.3     1  UNL1       -0.2704
      8 C         141.4807  138.0752  164.4468 C.3     1  UNL1        0.0722
      9 C         142.4389  138.3147  163.3179 C.3     1  UNL1        0.0191
     10 C         141.5991  138.3393  160.4422 C.3     1  UNL1        0.0909
     11 C         143.2021  138.9436  155.1981 C.ar    1  UNL1        0.1068
     12 C         142.6763  137.6831  155.8181 C.ar    1  UNL1        0.0268
     13 C         142.5615  137.5721  157.3096 C.ar    1  UNL1        0.0182
     14 C         142.9725  138.7216  158.1810 C.ar    1  UNL1        0.0673
     15 C         143.4984  139.9822  157.5610 C.ar    1  UNL1        0.1138
     16 N         143.6132  140.0932  156.0696 N.ar    1  UNL1       -0.2363
     17 C         142.4196  138.2400  152.8227 C.3     1  UNL1        0.0757
     18 S         143.3169  139.0546  153.7066 S.3     1  UNL1       -0.0940
     19 C         139.0702  137.5940  165.2882 C.3     1  UNL1        0.1063
     20 C         138.2301  138.7213  165.8109 C.3     1  UNL1        0.1483
     21 O         137.2817  138.4850  166.9487 O.3     1  UNL1       -0.3786
     22 H         136.8196  139.3110  167.1613 H       1  UNL1        0.2108
     23 C         138.3384  140.0851  165.1957 C.ar    1  UNL1        0.0015
     24 C         137.5295  140.4256  163.9792 C.ar    1  UNL1       -0.0020
     25 C         137.6378  141.7893  163.3640 C.ar    1  UNL1        0.0060
     26 C         138.5550  142.8126  163.9653 C.ar    1  UNL1        0.0748
     27 C         139.3639  142.4721  165.1817 C.ar    1  UNL1        0.0233
     28 C         139.2556  141.1084  165.7969 C.ar    1  UNL1       -0.0238
     29 C         140.0646  140.7680  167.0134 C.3     1  UNL1        0.0306
     30 C         140.1770  143.6777  165.5500 C.3     1  UNL1        0.2352
     31 O         139.8706  144.7632  164.5611 O.3     1  UNL1       -0.4404
     32 C         138.8681  144.2285  163.5818 C.2     1  UNL1        0.3413
     33 O         138.2817  144.9781  162.4224 O.2     1  UNL1       -0.2449
@<TRIPOS>BOND
     1    17    18    1
     2    18    11    1
     3    11    12   ar
     4    12    13   ar
     5    13    14   ar
     6    14     1    1
     7     1     2    1
     8     2     3    1
     9     3     4    1
    10     4     5    1
    11     5     6    1
    12     6     7    1
    13     7    19    1
    14    19    20    1
    15    20    21    1
    16    20    23    1
    17    23    24   ar
    18    24    25   ar
    19    25    26   ar
    20    26    27   ar
    21    27    28   ar
    22    28    29    1
    23    27    30    1
    24    30    31    1
    25    31    32    1
    26    32    33    2
    27     7     8    1
    28     8     9    1
    29     4    10    1
    30    14    15   ar
    31    15    16   ar
    32    16    11   ar
    33    10     1    1
    34     9     4    1
    35    28    23   ar
    36    32    26    1
    37    21    22    1
@<TRIPOS>MOLECULE
*****
 33 37 0 0 0
SMALL
GASTEIGER

@<TRIPOS>ATOM
      1 N         138.4120  140.3875  159.5118 N.pl3   1  UNL1       -0.3063
      2 C         138.9998  139.0101  159.4263 C.3     1  UNL1        0.0909
      3 C         139.1218  138.4708  160.8207 C.3     1  UNL1        0.0231
      4 C         138.6095  139.5150  161.7681 C.3     1  UNL1        0.0226
      5 C         138.0692  140.6481  162.5890 C.3     1  UNL1        0.0191
      6 C         138.0066  140.5286  164.0829 C.3     1  UNL1        0.0722
      7 N         138.4843  139.2760  164.7558 N.3     1  UNL1       -0.2704
      8 C         139.0246  138.1429  163.9349 C.3     1  UNL1        0.0722
      9 C         139.0872  138.2624  162.4410 C.3     1  UNL1        0.0191
     10 C         138.1708  140.6995  160.9591 C.3     1  UNL1        0.0909
     11 C         137.5276  143.1063  156.0368 C.ar    1  UNL1        0.1068
     12 C         136.7812  141.8139  156.1869 C.ar    1  UNL1        0.0268
     13 C         137.0760  140.9077  157.3452 C.ar    1  UNL1        0.0182
     14 C         138.1172  141.2938  158.3535 C.ar    1  UNL1        0.0673
     15 C         138.8637  142.5862  158.2035 C.ar    1  UNL1        0.1138
     16 N         138.5689  143.4924  157.0451 N.ar    1  UNL1       -0.2363
     17 C         137.7589  145.4173  154.8724 C.3     1  UNL1        0.0757
     18 S         137.2328  144.0125  154.8785 S.3     1  UNL1       -0.0940
     19 C         138.4217  139.1566  166.2498 C.3     1  UNL1        0.1063
     20 C         139.5573  139.6597  167.0907 C.3     1  UNL1        0.1483
     21 O         139.4103  139.7360  168.5815 O.3     1  UNL1       -0.3786
     22 H         140.2299  140.0798  168.9701 H       1  UNL1        0.2108
     23 C         140.8401  140.0864  166.4408 C.ar    1  UNL1        0.0015
     24 C         141.9075  139.0731  166.1512 C.ar    1  UNL1       -0.0020
     25 C         143.1903  139.4998  165.5014 C.ar    1  UNL1        0.0060
     26 C         143.4056  140.9398  165.1410 C.ar    1  UNL1        0.0748
     27 C         142.3382  141.9531  165.4305 C.ar    1  UNL1        0.0233
     28 C         141.0555  141.5264  166.0804 C.ar    1  UNL1       -0.0238
     29 C         139.9881  142.5398  166.3699 C.3     1  UNL1        0.0306
     30 C         142.8310  143.2913  164.9652 C.3     1  UNL1        0.2352
     31 O         144.2030  143.1050  164.3881 O.3     1  UNL1       -0.4404
     32 C         144.5581  141.6518  164.4967 C.2     1  UNL1        0.3413
     33 O         145.8406  141.0211  164.0412 O.2     1  UNL1       -0.2449
@<TRIPOS>BOND
     1    17    18    1
     2    18    11    1
     3    11    12   ar
     4    12    13   ar
     5    13    14   ar
     6    14     1    1
     7     1     2    1
     8     2     3    1
     9     3     4    1
    10     4     5    1
    11     5     6    1
    12     6     7    1
    13     7    19    1
    14    19    20    1
    15    20    21    1
    16    20    23    1
    17    23    24   ar
    18    24    25   ar
    19    25    26   ar
    20    26    27   ar
    21    27    28   ar
    22    28    29    1
    23    27    30    1
    24    30    31    1
    25    31    32    1
    26    32    33    2
    27     7     8    1
    28     8     9    1
    29     4    10    1
    30    14    15   ar
    31    15    16   ar
    32    16    11   ar
    33    10     1    1
    34     9     4    1
    35    28    23   ar
    36    32    26    1
    37    21    22    1
@<TRIPOS>MOLECULE
*****
 33 37 0 0 0
SMALL
GASTEIGER

@<TRIPOS>ATOM
      1 N         142.9167  138.4084  159.3706 N.pl3   1  UNL1       -0.3063
      2 C         142.9063  137.4175  160.4967 C.3     1  UNL1        0.0909
      3 C         143.4574  138.0956  161.7159 C.3     1  UNL1        0.0231
      4 C         143.8085  139.5056  161.3434 C.3     1  UNL1        0.0226
      5 C         144.1089  140.8812  160.8263 C.3     1  UNL1        0.0191
      6 C         144.6917  141.9160  161.7424 C.3     1  UNL1        0.0722
      7 N         144.9741  141.5754  163.1756 N.3     1  UNL1       -0.2704
      8 C         144.6737  140.1998  163.6928 C.3     1  UNL1        0.0722
      9 C         144.0909  139.1649  162.7767 C.3     1  UNL1        0.0191
     10 C         143.4743  139.6989  159.8939 C.3     1  UNL1        0.0909
     11 C         141.5205  137.6439  155.1616 C.ar    1  UNL1        0.1068
     12 C         141.3431  139.0008  155.7759 C.ar    1  UNL1        0.0268
     13 C         141.8085  139.2556  157.1789 C.ar    1  UNL1        0.0182
     14 C         142.4513  138.1536  157.9676 C.ar    1  UNL1        0.0673
     15 C         142.6288  136.7967  157.3534 C.ar    1  UNL1        0.1138
     16 N         142.1634  136.5419  155.9504 N.ar    1  UNL1       -0.2363
     17 C         141.8385  136.4759  152.8628 C.3     1  UNL1        0.0757
     18 S         141.0551  137.3891  153.7586 S.3     1  UNL1       -0.0940
     19 C         145.5570  142.6103  164.0917 C.3     1  UNL1        0.1063
     20 C         144.6528  143.4654  164.9290 C.3     1  UNL1        0.1483
     21 O         145.1712  144.0980  166.1865 O.3     1  UNL1       -0.3786
     22 H         144.4639  144.6137  166.6044 H       1  UNL1        0.2108
     23 C         143.2301  143.6880  164.5089 C.ar    1  UNL1        0.0015
     24 C         142.9082  144.7172  163.4662 C.ar    1  UNL1       -0.0020
     25 C         141.4856  144.9398  163.0461 C.ar    1  UNL1        0.0060
     26 C         140.3848  144.1332  163.6687 C.ar    1  UNL1        0.0748
     27 C         140.7066  143.1041  164.7114 C.ar    1  UNL1        0.0233
     28 C         142.1293  142.8815  165.1315 C.ar    1  UNL1       -0.0238
     29 C         142.4511  141.8523  166.1743 C.3     1  UNL1        0.0306
     30 C         139.4205  142.4654  165.1448 C.3     1  UNL1        0.2352
     31 O         138.3037  143.0998  164.3700 O.3     1  UNL1       -0.4404
     32 C         138.8997  144.1306  163.4577 C.2     1  UNL1        0.3413
     33 O         138.1434  145.0052  162.5021 O.2     1  UNL1       -0.2449
@<TRIPOS>BOND
     1    17    18    1
     2    18    11    1
     3    11    12   ar
     4    12    13   ar
     5    13    14   ar
     6    14     1    1
     7     1     2    1
     8     2     3    1
     9     3     4    1
    10     4     5    1
    11     5     6    1
    12     6     7    1
    13     7    19    1
    14    19    20    1
    15    20    21    1
    16    20    23    1
    17    23    24   ar
    18    24    25   ar
    19    25    26   ar
    20    26    27   ar
    21    27    28   ar
    22    28    29    1
    23    27    30    1
    24    30    31    1
    25    31    32    1
    26    32    33    2
    27     7     8    1
    28     8     9    1
    29     4    10    1
    30    14    15   ar
    31    15    16   ar
    32    16    11   ar
    33    10     1    1
    34     9     4    1
    35    28    23   ar
    36    32    26    1
    37    21    22    1
@<TRIPOS>MOLECULE
*****
 33 37 0 0 0
SMALL
GASTEIGER

@<TRIPOS>ATOM
      1 N         138.9612  142.4465  158.6855 N.pl3   1  UNL1       -0.3063
      2 C         138.6432  141.0438  158.2594 C.3     1  UNL1        0.0909
      3 C         138.4047  140.2269  159.4946 C.3     1  UNL1        0.0231
      4 C         138.5753  141.1246  160.6842 C.3     1  UNL1        0.0226
      5 C         138.7770  142.1377  161.7719 C.3     1  UNL1        0.0191
      6 C         138.6296  141.7344  163.2091 C.3     1  UNL1        0.0722
      7 N         138.2805  140.3181  163.5587 N.3     1  UNL1       -0.2704
      8 C         138.0788  139.3051  162.4710 C.3     1  UNL1        0.0722
      9 C         138.2262  139.7083  161.0338 C.3     1  UNL1        0.0191
     10 C         138.9192  142.4964  160.1842 C.3     1  UNL1        0.0909
     11 C         139.8797  145.8984  155.9487 C.ar    1  UNL1        0.1068
     12 C         140.4575  145.8640  157.3325 C.ar    1  UNL1        0.0268
     13 C         140.1513  144.7134  158.2448 C.ar    1  UNL1        0.0182
     14 C         139.2674  143.5971  157.7733 C.ar    1  UNL1        0.0673
     15 C         138.6895  143.6314  156.3894 C.ar    1  UNL1        0.1138
     16 N         138.9957  144.7820  155.4772 N.ar    1  UNL1       -0.2363
     17 C         139.2517  148.2206  154.9674 C.3     1  UNL1        0.0757
     18 S         140.1859  147.0490  155.0364 S.3     1  UNL1       -0.0940
     19 C         138.1331  139.9149  164.9960 C.3     1  UNL1        0.1063
     20 C         139.3239  139.4198  165.7619 C.3     1  UNL1        0.1483
     21 O         140.1405  138.2817  165.2255 O.3     1  UNL1       -0.3786
     22 H         140.8674  138.0885  165.8380 H       1  UNL1        0.2108
     23 C         139.6982  140.0629  167.0644 C.ar    1  UNL1        0.0015
     24 C         138.8998  139.7729  168.3008 C.ar    1  UNL1       -0.0020
     25 C         139.2741  140.4159  169.6032 C.ar    1  UNL1        0.0060
     26 C         140.4466  141.3490  169.6693 C.ar    1  UNL1        0.0748
     27 C         141.2450  141.6390  168.4330 C.ar    1  UNL1        0.0233
     28 C         140.8707  140.9960  167.1306 C.ar    1  UNL1       -0.0238
     29 C         141.6691  141.2860  165.8942 C.3     1  UNL1        0.0306
     30 C         142.3410  142.5941  168.8025 C.3     1  UNL1        0.2352
     31 O         142.2201  142.8943  170.2671 O.3     1  UNL1       -0.4404
     32 C         141.0493  142.1248  170.8029 C.2     1  UNL1        0.3413
     33 O         140.5660  142.1301  172.2229 O.2     1  UNL1       -0.2449
@<TRIPOS>BOND
     1    17    18    1
     2    18    11    1
     3    11    12   ar
     4    12    13   ar
     5    13    14   ar
     6    14     1    1
     7     1     2    1
     8     2     3    1
     9     3     4    1
    10     4     5    1
    11     5     6    1
    12     6     7    1
    13     7    19    1
    14    19    20    1
    15    20    21    1
    16    20    23    1
    17    23    24   ar
    18    24    25   ar
    19    25    26   ar
    20    26    27   ar
    21    27    28   ar
    22    28    29    1
    23    27    30    1
    24    30    31    1
    25    31    32    1
    26    32    33    2
    27     7     8    1
    28     8     9    1
    29     4    10    1
    30    14    15   ar
    31    15    16   ar
    32    16    11   ar
    33    10     1    1
    34     9     4    1
    35    28    23   ar
    36    32    26    1
    37    21    22    1
@<TRIPOS>MOLECULE
*****
 33 37 0 0 0
SMALL
GASTEIGER

@<TRIPOS>ATOM
      1 N         139.7266  138.7619  159.1387 N.pl3   1  UNL1       -0.3063
      2 C         138.7833  139.9228  159.0267 C.3     1  UNL1        0.0909
      3 C         138.2864  140.2509  160.4035 C.3     1  UNL1        0.0231
      4 C         138.9227  139.2927  161.3664 C.3     1  UNL1        0.0226
      5 C         139.6316  138.2713  162.2054 C.3     1  UNL1        0.0191
      6 C         139.4157  138.2390  163.6894 C.3     1  UNL1        0.0722
      7 N         138.4908  139.2283  164.3344 N.3     1  UNL1       -0.2704
      8 C         137.7819  140.2497  163.4954 C.3     1  UNL1        0.0722
      9 C         137.9978  140.2820  162.0115 C.3     1  UNL1        0.0191
     10 C         139.8128  138.3725  160.5848 C.3     1  UNL1        0.0909
     11 C         141.9140  136.7932  155.7344 C.ar    1  UNL1        0.1068
     12 C         140.4201  136.9203  155.6924 C.ar    1  UNL1        0.0268
     13 C         139.6909  137.5765  156.8271 C.ar    1  UNL1        0.0182
     14 C         140.4558  138.1057  158.0039 C.ar    1  UNL1        0.0673
     15 C         141.9498  137.9786  158.0460 C.ar    1  UNL1        0.1138
     16 N         142.6789  137.3224  156.9113 N.ar    1  UNL1       -0.2363
     17 C         142.5497  134.6523  154.4068 C.3     1  UNL1        0.0757
     18 S         142.6432  136.1370  154.5997 S.3     1  UNL1       -0.0940
     19 C         138.2749  139.1960  165.8185 C.3     1  UNL1        0.1063
     20 C         139.2358  139.8979  166.7316 C.3     1  UNL1        0.1483
     21 O         139.2203  139.6077  168.2032 O.3     1  UNL1       -0.3786
     22 H         139.8989  140.1415  168.6453 H       1  UNL1        0.2108
     23 C         140.2124  140.8902  166.1732 C.ar    1  UNL1        0.0015
     24 C         139.7812  142.3037  165.9162 C.ar    1  UNL1       -0.0020
     25 C         140.7576  143.2960  165.3578 C.ar    1  UNL1        0.0060
     26 C         142.1653  142.8748  165.0564 C.ar    1  UNL1        0.0748
     27 C         142.5966  141.4613  165.3134 C.ar    1  UNL1        0.0233
     28 C         141.6201  140.4690  165.8718 C.ar    1  UNL1       -0.0238
     29 C         142.0513  139.0555  166.1288 C.3     1  UNL1        0.0306
     30 C         144.0390  141.3381  164.9207 C.3     1  UNL1        0.2352
     31 O         144.4993  142.6754  164.4210 O.3     1  UNL1       -0.4404
     32 C         143.3413  143.6251  164.5049 C.2     1  UNL1        0.3413
     33 O         143.3565  145.0714  164.1071 O.2     1  UNL1       -0.2449
@<TRIPOS>BOND
     1    17    18    1
     2    18    11    1
     3    11    12   ar
     4    12    13   ar
     5    13    14   ar
     6    14     1    1
     7     1     2    1
     8     2     3    1
     9     3     4    1
    10     4     5    1
    11     5     6    1
    12     6     7    1
    13     7    19    1
    14    19    20    1
    15    20    21    1
    16    20    23    1
    17    23    24   ar
    18    24    25   ar
    19    25    26   ar
    20    26    27   ar
    21    27    28   ar
    22    28    29    1
    23    27    30    1
    24    30    31    1
    25    31    32    1
    26    32    33    2
    27     7     8    1
    28     8     9    1
    29     4    10    1
    30    14    15   ar
    31    15    16   ar
    32    16    11   ar
    33    10     1    1
    34     9     4    1
    35    28    23   ar
    36    32    26    1
    37    21    22    1
@<TRIPOS>MOLECULE
*****
 33 37 0 0 0
SMALL
GASTEIGER

@<TRIPOS>ATOM
      1 N         142.7632  137.6518  158.0147 N.pl3   1  UNL1       -0.3063
      2 C         143.2835  138.9916  157.5850 C.3     1  UNL1        0.0909
      3 C         143.4660  139.8335  158.8129 C.3     1  UNL1        0.0231
      4 C         143.0585  139.0142  160.0016 C.3     1  UNL1        0.0226
      5 C         142.6194  138.0790  161.0890 C.3     1  UNL1        0.0191
      6 C         142.6423  138.5290  162.5197 C.3     1  UNL1        0.0722
      7 N         143.1043  139.9142  162.8630 N.3     1  UNL1       -0.2704
      8 C         143.5434  140.8494  161.7755 C.3     1  UNL1        0.0722
      9 C         143.5205  140.3994  160.3448 C.3     1  UNL1        0.0191
     10 C         142.6242  137.6658  159.5082 C.3     1  UNL1        0.0909
     11 C         141.7904  134.1974  155.2999 C.ar    1  UNL1        0.1068
     12 C         141.0217  135.4803  155.1861 C.ar    1  UNL1        0.0268
     13 C         141.3460  136.6318  156.0910 C.ar    1  UNL1        0.0182
     14 C         142.4390  136.5004  157.1097 C.ar    1  UNL1        0.0673
     15 C         143.2078  135.2174  157.2236 C.ar    1  UNL1        0.1138
     16 N         142.8835  134.0659  156.3187 N.ar    1  UNL1       -0.2363
     17 C         141.2710  131.6735  154.9680 C.3     1  UNL1        0.0757
     18 S         141.4661  133.0459  154.3950 S.3     1  UNL1       -0.0940
     19 C         143.1271  140.3642  164.2937 C.3     1  UNL1        0.1063
     20 C         142.0063  141.2016  164.8346 C.3     1  UNL1        0.1483
     21 O         141.0680  141.8970  163.8934 O.3     1  UNL1       -0.3786
     22 H         140.4069  142.3916  164.4026 H       1  UNL1        0.2108
     23 C         141.8238  141.3435  166.3167 C.ar    1  UNL1        0.0015
     24 C         142.8309  142.1048  167.1268 C.ar    1  UNL1       -0.0020
     25 C         142.6485  142.2468  168.6089 C.ar    1  UNL1        0.0060
     26 C         141.4589  141.6276  169.2808 C.ar    1  UNL1        0.0748
     27 C         140.4519  140.8663  168.4707 C.ar    1  UNL1        0.0233
     28 C         140.6343  140.7243  166.9886 C.ar    1  UNL1       -0.0238
     29 C         139.6272  139.9631  166.1785 C.3     1  UNL1        0.0306
     30 C         139.3873  140.3690  169.4031 C.3     1  UNL1        0.2352
     31 O         139.7364  140.8229  170.7895 O.3     1  UNL1       -0.4404
     32 C         141.0168  141.6007  170.7139 C.2     1  UNL1        0.3413
     33 O         141.7298  142.2396  171.8687 O.2     1  UNL1       -0.2449
@<TRIPOS>BOND
     1    17    18    1
     2    18    11    1
     3    11    12   ar
     4    12    13   ar
     5    13    14   ar
     6    14     1    1
     7     1     2    1
     8     2     3    1
     9     3     4    1
    10     4     5    1
    11     5     6    1
    12     6     7    1
    13     7    19    1
    14    19    20    1
    15    20    21    1
    16    20    23    1
    17    23    24   ar
    18    24    25   ar
    19    25    26   ar
    20    26    27   ar
    21    27    28   ar
    22    28    29    1
    23    27    30    1
    24    30    31    1
    25    31    32    1
    26    32    33    2
    27     7     8    1
    28     8     9    1
    29     4    10    1
    30    14    15   ar
    31    15    16   ar
    32    16    11   ar
    33    10     1    1
    34     9     4    1
    35    28    23   ar
    36    32    26    1
    37    21    22    1
@<TRIPOS>MOLECULE
*****
 33 37 0 0 0
SMALL
GASTEIGER

@<TRIPOS>ATOM
      1 N         142.7540  141.7934  157.7158 N.pl3   1  UNL1       -0.3063
      2 C         141.5796  142.5807  157.2148 C.3     1  UNL1        0.0909
      3 C         140.4037  142.2680  158.0920 C.3     1  UNL1        0.0231
      4 C         140.8513  141.2874  159.1352 C.3     1  UNL1        0.0226
      5 C         141.4409  140.3133  160.1116 C.3     1  UNL1        0.0191
      6 C         140.5861  139.7287  161.1967 C.3     1  UNL1        0.0722
      7 N         139.1416  140.1182  161.3054 N.3     1  UNL1       -0.2704
      8 C         138.5520  141.0923  160.3290 C.3     1  UNL1        0.0722
      9 C         139.4068  141.6769  159.2439 C.3     1  UNL1        0.0191
     10 C         142.3039  140.9941  158.9027 C.3     1  UNL1        0.0909
     11 C         146.8995  141.8239  155.9656 C.ar    1  UNL1        0.1068
     12 C         145.8014  141.0666  155.2798 C.ar    1  UNL1        0.0268
     13 C         144.4196  141.0564  155.8632 C.ar    1  UNL1        0.0182
     14 C         144.1359  141.8036  157.1324 C.ar    1  UNL1        0.0673
     15 C         145.2339  142.5610  157.8184 C.ar    1  UNL1        0.1138
     16 N         146.6158  142.5711  157.2350 N.ar    1  UNL1       -0.2363
     17 C         148.4691  141.9790  153.9011 C.3     1  UNL1        0.0757
     18 S         148.2814  141.8341  155.3822 S.3     1  UNL1       -0.0940
     19 C         138.2868  139.5336  162.3905 C.3     1  UNL1        0.1063
     20 C         137.7493  140.4150  163.4787 C.3     1  UNL1        0.1483
     21 O         136.6093  141.3475  163.1942 O.3     1  UNL1       -0.3786
     22 H         136.3864  141.8408  163.9991 H       1  UNL1        0.2108
     23 C         138.3517  140.3639  164.8515 C.ar    1  UNL1        0.0015
     24 C         137.9937  139.2469  165.7865 C.ar    1  UNL1       -0.0020
     25 C         138.5961  139.1958  167.1593 C.ar    1  UNL1        0.0060
     26 C         139.5564  140.2617  167.5970 C.ar    1  UNL1        0.0748
     27 C         139.9144  141.3786  166.6620 C.ar    1  UNL1        0.0233
     28 C         139.3121  141.4297  165.2892 C.ar    1  UNL1       -0.0238
     29 C         139.6700  142.5467  164.3542 C.3     1  UNL1        0.0306
     30 C         140.8832  142.2810  167.3672 C.3     1  UNL1        0.2352
     31 O         141.1239  141.7217  168.7381 O.3     1  UNL1       -0.4404
     32 C         140.3040  140.4737  168.8801 C.2     1  UNL1        0.3413
     33 O         140.2423  139.5925  170.0924 O.2     1  UNL1       -0.2449
@<TRIPOS>BOND
     1    17    18    1
     2    18    11    1
     3    11    12   ar
     4    12    13   ar
     5    13    14   ar
     6    14     1    1
     7     1     2    1
     8     2     3    1
     9     3     4    1
    10     4     5    1
    11     5     6    1
    12     6     7    1
    13     7    19    1
    14    19    20    1
    15    20    21    1
    16    20    23    1
    17    23    24   ar
    18    24    25   ar
    19    25    26   ar
    20    26    27   ar
    21    27    28   ar
    22    28    29    1
    23    27    30    1
    24    30    31    1
    25    31    32    1
    26    32    33    2
    27     7     8    1
    28     8     9    1
    29     4    10    1
    30    14    15   ar
    31    15    16   ar
    32    16    11   ar
    33    10     1    1
    34     9     4    1
    35    28    23   ar
    36    32    26    1
    37    21    22    1
@<TRIPOS>MOLECULE
*****
 33 37 0 0 0
SMALL
GASTEIGER

@<TRIPOS>ATOM
      1 N         142.8194  137.6277  158.0103 N.pl3   1  UNL1       -0.3063
      2 C         143.0068  139.0535  157.5835 C.3     1  UNL1        0.0909
      3 C         143.2866  139.8713  158.8095 C.3     1  UNL1        0.0231
      4 C         143.2721  138.9510  159.9939 C.3     1  UNL1        0.0226
      5 C         143.2264  137.9146  161.0773 C.3     1  UNL1        0.0191
      6 C         143.4597  138.3112  162.5049 C.3     1  UNL1        0.0722
      7 N         143.7387  139.7443  162.8492 N.3     1  UNL1       -0.2704
      8 C         143.7843  140.7807  161.7658 C.3     1  UNL1        0.0722
      9 C         143.5510  140.3840  160.3382 C.3     1  UNL1        0.0191
     10 C         142.9834  137.5644  159.5000 C.3     1  UNL1        0.0909
     11 C         141.9228  134.1509  155.2977 C.ar    1  UNL1        0.1068
     12 C         141.0563  135.3747  155.2598 C.ar    1  UNL1        0.0268
     13 C         141.3552  136.5336  156.1640 C.ar    1  UNL1        0.0182
     14 C         142.5205  136.4688  157.1061 C.ar    1  UNL1        0.0673
     15 C         143.3871  135.2450  157.1440 C.ar    1  UNL1        0.1138
     16 N         143.0882  134.0861  156.2399 N.ar    1  UNL1       -0.2363
     17 C         140.8237  131.8301  154.9032 C.3     1  UNL1        0.0757
     18 S         141.6239  132.9920  154.3936 S.3     1  UNL1       -0.0940
     19 C         143.9720  140.1409  164.2769 C.3     1  UNL1        0.1063
     20 C         142.8064  140.4418  165.1718 C.3     1  UNL1        0.1483
     21 O         142.8313  140.0077  166.6074 O.3     1  UNL1       -0.3786
     22 H         142.0073  140.2787  167.0415 H       1  UNL1        0.2108
     23 C         141.6158  141.1768  164.6311 C.ar    1  UNL1        0.0015
     24 C         141.6784  142.6622  164.4318 C.ar    1  UNL1       -0.0020
     25 C         140.4879  143.3972  163.8911 C.ar    1  UNL1        0.0060
     26 C         139.2347  142.6469  163.5497 C.ar    1  UNL1        0.0748
     27 C         139.1721  141.1615  163.7490 C.ar    1  UNL1        0.0233
     28 C         140.3627  140.4264  164.2897 C.ar    1  UNL1       -0.0238
     29 C         140.3001  138.9411  164.4889 C.3     1  UNL1        0.0306
     30 C         137.8110  140.6941  163.3262 C.3     1  UNL1        0.2352
     31 O         137.0323  141.8905  162.8656 O.3     1  UNL1       -0.4404
     32 C         137.9123  143.0974  163.0038 C.2     1  UNL1        0.3413
     33 O         137.5358  144.5074  162.6569 O.2     1  UNL1       -0.2449
@<TRIPOS>BOND
     1    17    18    1
     2    18    11    1
     3    11    12   ar
     4    12    13   ar
     5    13    14   ar
     6    14     1    1
     7     1     2    1
     8     2     3    1
     9     3     4    1
    10     4     5    1
    11     5     6    1
    12     6     7    1
    13     7    19    1
    14    19    20    1
    15    20    21    1
    16    20    23    1
    17    23    24   ar
    18    24    25   ar
    19    25    26   ar
    20    26    27   ar
    21    27    28   ar
    22    28    29    1
    23    27    30    1
    24    30    31    1
    25    31    32    1
    26    32    33    2
    27     7     8    1
    28     8     9    1
    29     4    10    1
    30    14    15   ar
    31    15    16   ar
    32    16    11   ar
    33    10     1    1
    34     9     4    1
    35    28    23   ar
    36    32    26    1
    37    21    22    1
@<TRIPOS>MOLECULE
*****
 33 37 0 0 0
SMALL
GASTEIGER

@<TRIPOS>ATOM
      1 N         143.1292  139.4243  157.7263 N.pl3   1  UNL1       -0.3063
      2 C         143.2914  140.8186  157.1972 C.3     1  UNL1        0.0909
      3 C         143.7016  141.7024  158.3376 C.3     1  UNL1        0.0231
      4 C         143.7930  140.8544  159.5717 C.3     1  UNL1        0.0226
      5 C         143.8418  139.8852  160.7154 C.3     1  UNL1        0.0191
      6 C         144.2205  140.3615  162.0864 C.3     1  UNL1        0.0722
      7 N         144.5503  141.8071  162.3137 N.3     1  UNL1       -0.2704
      8 C         144.5014  142.7763  161.1700 C.3     1  UNL1        0.0722
      9 C         144.1228  142.3000  159.7990 C.3     1  UNL1        0.0191
     10 C         143.4392  139.4465  159.1939 C.3     1  UNL1        0.0909
     11 C         141.9242  135.8100  155.3318 C.ar    1  UNL1        0.1068
     12 C         143.3166  136.3556  155.2170 C.ar    1  UNL1        0.0268
     13 C         143.7183  137.5604  156.0152 C.ar    1  UNL1        0.0182
     14 C         142.7275  138.2196  156.9282 C.ar    1  UNL1        0.0673
     15 C         141.3350  137.6740  157.0431 C.ar    1  UNL1        0.1138
     16 N         140.9333  136.4692  156.2449 N.ar    1  UNL1       -0.2363
     17 C         141.3797  133.2726  155.2075 C.3     1  UNL1        0.0757
     18 S         141.5225  134.6052  154.5337 S.3     1  UNL1       -0.0940
     19 C         144.9289  142.2833  163.6848 C.3     1  UNL1        0.1063
     20 C         143.8686  142.7606  164.6324 C.3     1  UNL1        0.1483
     21 O         144.2494  143.2571  165.9956 O.3     1  UNL1       -0.3786
     22 H         143.4510  143.5253  166.4767 H       1  UNL1        0.2108
     23 C         142.4274  142.7413  164.2167 C.ar    1  UNL1        0.0015
     24 C         141.6320  141.4744  164.3269 C.ar    1  UNL1       -0.0020
     25 C         140.1909  141.4551  163.9112 C.ar    1  UNL1        0.0060
     26 C         139.5452  142.7027  163.3854 C.ar    1  UNL1        0.0748
     27 C         140.3407  143.9696  163.2753 C.ar    1  UNL1        0.0233
     28 C         141.7818  143.9889  163.6909 C.ar    1  UNL1       -0.0238
     29 C         142.5772  145.2559  163.5807 C.3     1  UNL1        0.0306
     30 C         139.4406  145.0356  162.7243 C.3     1  UNL1        0.2352
     31 O         138.0889  144.4275  162.4939 O.3     1  UNL1       -0.4404
     32 C         138.1536  142.9857  162.9025 C.2     1  UNL1        0.3413
     33 O         137.0248  141.9999  162.8394 O.2     1  UNL1       -0.2449
@<TRIPOS>BOND
     1    17    18    1
     2    18    11    1
     3    11    12   ar
     4    12    13   ar
     5    13    14   ar
     6    14     1    1
     7     1     2    1
     8     2     3    1
     9     3     4    1
    10     4     5    1
    11     5     6    1
    12     6     7    1
    13     7    19    1
    14    19    20    1
    15    20    21    1
    16    20    23    1
    17    23    24   ar
    18    24    25   ar
    19    25    26   ar
    20    26    27   ar
    21    27    28   ar
    22    28    29    1
    23    27    30    1
    24    30    31    1
    25    31    32    1
    26    32    33    2
    27     7     8    1
    28     8     9    1
    29     4    10    1
    30    14    15   ar
    31    15    16   ar
    32    16    11   ar
    33    10     1    1
    34     9     4    1
    35    28    23   ar
    36    32    26    1
    37    21    22    1
