@<TRIPOS>MOLECULE
*****
 35 39 0 0 0
SMALL
GASTEIGER

@<TRIPOS>ATOM
      1 N         141.8534  140.7166  161.3366 N.3     1  UNL1       -0.2689
      2 C         141.2171  141.6134  162.3567 C.3     1  UNL1        0.0724
      3 C         141.3734  141.3158  163.8185 C.3     1  UNL1        0.0175
      4 C         142.1661  140.1213  164.2602 C.3     1  UNL1        0.0060
      5 C         142.8024  139.2245  163.2400 C.3     1  UNL1        0.0175
      6 C         142.6461  139.5222  161.7782 C.3     1  UNL1        0.0724
      7 C         141.5297  141.0182  165.2804 C.3     1  UNL1        0.0217
      8 C         141.6860  140.7205  166.7422 C.3     1  UNL1        0.0937
      9 N         142.4787  139.5261  167.1839 N.am    1  UNL1       -0.2761
     10 C         142.6350  139.2285  168.6458 C.2     1  UNL1        0.2491
     11 O         143.4276  138.0341  169.0874 O.2     1  UNL1       -0.2699
     12 C         143.1150  138.6293  166.1637 C.3     1  UNL1        0.0937
     13 C         142.9587  138.9269  164.7018 C.3     1  UNL1        0.0217
     14 C         141.9986  140.1253  169.6660 C.ar    1  UNL1        0.0567
     15 C         142.7508  141.3095  170.1969 C.ar    1  UNL1        0.0252
     16 C         142.1145  142.2063  171.2171 C.ar    1  UNL1        0.0990
     17 N         140.7259  141.9189  171.7063 N.ar    1  UNL1       -0.2423
     18 C         139.9737  140.7348  171.1754 C.ar    1  UNL1        0.0990
     19 C         140.6101  139.8379  170.1552 C.ar    1  UNL1        0.0252
     20 C         141.6971  141.0142  159.8747 C.3     1  UNL1        0.1022
     21 C         143.8057  142.4241  159.3123 C.ar    1  UNL1        0.1427
     22 C         145.0178  142.6662  158.4624 C.ar    1  UNL1        0.0372
     23 C         145.3333  141.7406  157.3250 C.ar    1  UNL1        0.0031
     24 C         144.4368  140.5729  157.0375 C.ar    1  UNL1       -0.0001
     25 C         143.2248  140.3308  157.8873 C.ar    1  UNL1        0.0001
     26 C         142.9092  141.2564  159.0248 C.ar    1  UNL1        0.0284
     27 O         143.4902  143.3497  160.4497 O.3     1  UNL1       -0.4507
     28 C         143.6618  143.9416  162.9736 C.ar    1  UNL1        0.1730
     29 C         144.2590  143.6967  164.3277 C.ar    1  UNL1        0.0401
     30 C         145.2818  142.6151  164.5118 C.ar    1  UNL1        0.0033
     31 C         145.7074  141.7783  163.3419 C.ar    1  UNL1        0.0033
     32 C         145.1102  142.0232  161.9879 C.ar    1  UNL1        0.0406
     33 C         144.0874  143.1048  161.8038 C.ar    1  UNL1        0.1789
     34 C         141.5433  145.1991  163.7988 C.3     1  UNL1        0.2526
     35 O         142.6389  145.0232  162.7895 O.3     1  UNL1       -0.4684
@<TRIPOS>BOND
     1    34    35    1
     2    35    28    1
     3    28    29   ar
     4    29    30   ar
     5    30    31   ar
     6    31    32   ar
     7    32    33   ar
     8    33    27    1
     9    27    21    1
    10    21    22   ar
    11    22    23   ar
    12    23    24   ar
    13    24    25   ar
    14    25    26   ar
    15    26    20    1
    16    20     1    1
    17     1     2    1
    18     2     3    1
    19     3     4    1
    20     4     5    1
    21     5     6    1
    22     4     7    1
    23     7     8    1
    24     8     9    1
    25     9    10   am
    26    10    11    2
    27    10    14    1
    28    14    15   ar
    29    15    16   ar
    30    16    17   ar
    31    17    18   ar
    32    18    19   ar
    33     9    12    1
    34    12    13    1
    35    33    28   ar
    36    26    21   ar
    37     6     1    1
    38    19    14   ar
    39    13     4    1
@<TRIPOS>MOLECULE
*****
 35 39 0 0 0
SMALL
GASTEIGER

@<TRIPOS>ATOM
      1 N         141.2549  143.4389  161.1355 N.3     1  UNL1       -0.2689
      2 C         140.9670  144.1680  162.4144 C.3     1  UNL1        0.0724
      3 C         141.2475  143.5095  163.7326 C.3     1  UNL1        0.0175
      4 C         141.8159  142.1219  163.7719 C.3     1  UNL1        0.0060
      5 C         142.1038  141.3928  162.4931 C.3     1  UNL1        0.0175
      6 C         141.8233  142.0513  161.1749 C.3     1  UNL1        0.0724
      7 C         141.5281  142.8510  165.0508 C.3     1  UNL1        0.0217
      8 C         141.8086  142.1926  166.3690 C.3     1  UNL1        0.0937
      9 N         142.3769  140.8050  166.4084 N.am    1  UNL1       -0.2761
     10 C         142.6574  140.1465  167.7267 C.2     1  UNL1        0.2491
     11 O         143.2258  138.7589  167.7660 O.2     1  UNL1       -0.2699
     12 C         142.6648  140.0759  165.1296 C.3     1  UNL1        0.0937
     13 C         142.3843  140.7343  163.8113 C.3     1  UNL1        0.0217
     14 C         142.3696  140.8756  169.0055 C.ar    1  UNL1        0.0567
     15 C         143.2056  142.0570  169.3999 C.ar    1  UNL1        0.0252
     16 C         142.9177  142.7861  170.6787 C.ar    1  UNL1        0.0990
     17 N         141.7938  142.3339  171.5633 N.ar    1  UNL1       -0.2423
     18 C         140.9578  141.1525  171.1689 C.ar    1  UNL1        0.0990
     19 C         141.2457  140.4234  169.8900 C.ar    1  UNL1        0.0252
     20 C         140.9744  144.0973  159.8172 C.3     1  UNL1        0.1022
     21 C         138.8413  142.8565  159.0047 C.ar    1  UNL1        0.1427
     22 C         138.1013  142.1089  157.9353 C.ar    1  UNL1        0.0372
     23 C         138.7544  141.8547  156.6091 C.ar    1  UNL1        0.0031
     24 C         140.1475  142.3480  156.3523 C.ar    1  UNL1       -0.0001
     25 C         140.8875  143.0955  157.4216 C.ar    1  UNL1        0.0001
     26 C         140.2344  143.3498  158.7479 C.ar    1  UNL1        0.0284
     27 O         138.1882  143.1107  160.3309 O.3     1  UNL1       -0.4507
     28 C         137.8531  142.3888  162.8041 C.ar    1  UNL1        0.1730
     29 C         137.8517  141.3200  163.8565 C.ar    1  UNL1        0.0401
     30 C         138.1839  139.9044  163.4884 C.ar    1  UNL1        0.0033
     31 C         138.5177  139.5575  162.0677 C.ar    1  UNL1        0.0033
     32 C         138.5191  140.6263  161.0152 C.ar    1  UNL1        0.0406
     33 C         138.1868  142.0419  161.3834 C.ar    1  UNL1        0.1789
     34 C         137.7994  144.3039  164.5590 C.3     1  UNL1        0.2526
     35 O         137.5208  143.8045  163.1723 O.3     1  UNL1       -0.4684
@<TRIPOS>BOND
     1    34    35    1
     2    35    28    1
     3    28    29   ar
     4    29    30   ar
     5    30    31   ar
     6    31    32   ar
     7    32    33   ar
     8    33    27    1
     9    27    21    1
    10    21    22   ar
    11    22    23   ar
    12    23    24   ar
    13    24    25   ar
    14    25    26   ar
    15    26    20    1
    16    20     1    1
    17     1     2    1
    18     2     3    1
    19     3     4    1
    20     4     5    1
    21     5     6    1
    22     4     7    1
    23     7     8    1
    24     8     9    1
    25     9    10   am
    26    10    11    2
    27    10    14    1
    28    14    15   ar
    29    15    16   ar
    30    16    17   ar
    31    17    18   ar
    32    18    19   ar
    33     9    12    1
    34    12    13    1
    35    33    28   ar
    36    26    21   ar
    37     6     1    1
    38    19    14   ar
    39    13     4    1
@<TRIPOS>MOLECULE
*****
 35 39 0 0 0
SMALL
GASTEIGER

@<TRIPOS>ATOM
      1 N         142.3217  140.4343  161.1420 N.3     1  UNL1       -0.2689
      2 C         141.8265  141.4726  162.1047 C.3     1  UNL1        0.0724
      3 C         141.9183  141.2300  163.5821 C.3     1  UNL1        0.0175
      4 C         142.5053  139.9492  164.0968 C.3     1  UNL1        0.0060
      5 C         143.0005  138.9109  163.1341 C.3     1  UNL1        0.0175
      6 C         142.9087  139.1535  161.6568 C.3     1  UNL1        0.0724
      7 C         142.0102  140.9875  165.0595 C.3     1  UNL1        0.0217
      8 C         142.1020  140.7450  166.5369 C.3     1  UNL1        0.0937
      9 N         142.6890  139.4642  167.0516 N.am    1  UNL1       -0.2761
     10 C         142.7808  139.2217  168.5291 C.2     1  UNL1        0.2491
     11 O         143.3678  137.9409  169.0438 O.2     1  UNL1       -0.2699
     12 C         143.1842  138.4259  166.0890 C.3     1  UNL1        0.0937
     13 C         143.0924  138.6684  164.6115 C.3     1  UNL1        0.0217
     14 C         142.2857  140.2599  169.4918 C.ar    1  UNL1        0.0567
     15 C         143.1268  141.4646  169.7938 C.ar    1  UNL1        0.0252
     16 C         142.6317  142.5029  170.7565 C.ar    1  UNL1        0.0990
     17 N         141.2952  142.3365  171.4171 N.ar    1  UNL1       -0.2423
     18 C         140.4541  141.1319  171.1151 C.ar    1  UNL1        0.0990
     19 C         140.9493  140.0936  170.1523 C.ar    1  UNL1        0.0252
     20 C         142.2299  140.6768  159.6646 C.3     1  UNL1        0.1022
     21 C         140.3336  139.1930  158.6887 C.ar    1  UNL1        0.1427
     22 C         139.8865  138.0912  157.7742 C.ar    1  UNL1        0.0372
     23 C         140.8886  137.3717  156.9210 C.ar    1  UNL1        0.0031
     24 C         142.3378  137.7538  156.9823 C.ar    1  UNL1       -0.0001
     25 C         142.7849  138.8555  157.8968 C.ar    1  UNL1        0.0001
     26 C         141.7828  139.5751  158.7501 C.ar    1  UNL1        0.0284
     27 O         139.3314  139.9125  159.5419 O.3     1  UNL1       -0.4507
     28 C         138.4457  140.4170  161.9316 C.ar    1  UNL1        0.1730
     29 C         138.2264  139.9900  163.3527 C.ar    1  UNL1        0.0401
     30 C         138.6733  138.6315  163.8052 C.ar    1  UNL1        0.0033
     31 C         139.3397  137.7000  162.8365 C.ar    1  UNL1        0.0033
     32 C         139.5591  138.1270  161.4154 C.ar    1  UNL1        0.0406
     33 C         139.1121  139.4855  160.9630 C.ar    1  UNL1        0.1789
     34 C         137.8410  142.8841  162.4772 C.3     1  UNL1        0.2526
     35 O         137.9987  141.7755  161.4792 O.3     1  UNL1       -0.4684
@<TRIPOS>BOND
     1    34    35    1
     2    35    28    1
     3    28    29   ar
     4    29    30   ar
     5    30    31   ar
     6    31    32   ar
     7    32    33   ar
     8    33    27    1
     9    27    21    1
    10    21    22   ar
    11    22    23   ar
    12    23    24   ar
    13    24    25   ar
    14    25    26   ar
    15    26    20    1
    16    20     1    1
    17     1     2    1
    18     2     3    1
    19     3     4    1
    20     4     5    1
    21     5     6    1
    22     4     7    1
    23     7     8    1
    24     8     9    1
    25     9    10   am
    26    10    11    2
    27    10    14    1
    28    14    15   ar
    29    15    16   ar
    30    16    17   ar
    31    17    18   ar
    32    18    19   ar
    33     9    12    1
    34    12    13    1
    35    33    28   ar
    36    26    21   ar
    37     6     1    1
    38    19    14   ar
    39    13     4    1
@<TRIPOS>MOLECULE
*****
 35 39 0 0 0
SMALL
GASTEIGER

@<TRIPOS>ATOM
      1 N         140.4884  140.1913  161.2632 N.3     1  UNL1       -0.2689
      2 C         141.3984  140.8782  162.2378 C.3     1  UNL1        0.0724
      3 C         141.1025  140.8227  163.7073 C.3     1  UNL1        0.0175
      4 C         139.8967  140.0804  164.2021 C.3     1  UNL1        0.0060
      5 C         138.9867  139.3935  163.2274 C.3     1  UNL1        0.0175
      6 C         139.2825  139.4489  161.7580 C.3     1  UNL1        0.0724
      7 C         140.8067  140.7673  165.1769 C.3     1  UNL1        0.0217
      8 C         140.5108  140.7119  166.6463 C.3     1  UNL1        0.0937
      9 N         139.3050  139.9695  167.1411 N.am    1  UNL1       -0.2761
     10 C         139.0091  139.9141  168.6106 C.2     1  UNL1        0.2491
     11 O         137.8033  139.1718  169.1054 O.2     1  UNL1       -0.2699
     12 C         138.3950  139.2826  166.1664 C.3     1  UNL1        0.0937
     13 C         138.6908  139.3380  164.6969 C.3     1  UNL1        0.0217
     14 C         139.9191  140.6010  169.5853 C.ar    1  UNL1        0.0567
     15 C         141.1267  139.8866  170.1156 C.ar    1  UNL1        0.0252
     16 C         142.0367  140.5735  171.0903 C.ar    1  UNL1        0.0990
     17 N         141.7391  141.9750  171.5347 N.ar    1  UNL1       -0.2423
     18 C         140.5315  142.6894  171.0044 C.ar    1  UNL1        0.0990
     19 C         139.6215  142.0024  170.0296 C.ar    1  UNL1        0.0252
     20 C         140.7842  140.2467  159.7936 C.3     1  UNL1        0.1022
     21 C         139.4506  142.2886  158.8982 C.ar    1  UNL1        0.1427
     22 C         138.4412  142.8669  157.9512 C.ar    1  UNL1        0.0372
     23 C         137.7562  141.9816  156.9527 C.ar    1  UNL1        0.0031
     24 C         138.0805  140.5180  156.9012 C.ar    1  UNL1       -0.0001
     25 C         139.0898  139.9397  157.8482 C.ar    1  UNL1        0.0001
     26 C         139.7749  140.8250  158.8467 C.ar    1  UNL1        0.0284
     27 O         140.1356  143.1739  159.8967 O.3     1  UNL1       -0.4507
     28 C         140.1652  144.3499  162.2131 C.ar    1  UNL1        0.1730
     29 C         139.5264  144.6134  163.5445 C.ar    1  UNL1        0.0401
     30 C         138.2193  143.9642  163.8908 C.ar    1  UNL1        0.0033
     31 C         137.5509  143.0516  162.9057 C.ar    1  UNL1        0.0033
     32 C         138.1896  142.7881  161.5743 C.ar    1  UNL1        0.0406
     33 C         139.4968  143.4373  161.2280 C.ar    1  UNL1        0.1789
     34 C         142.7625  144.3518  162.2746 C.3     1  UNL1        0.2526
     35 O         141.4724  144.9992  161.8668 O.3     1  UNL1       -0.4684
@<TRIPOS>BOND
     1    34    35    1
     2    35    28    1
     3    28    29   ar
     4    29    30   ar
     5    30    31   ar
     6    31    32   ar
     7    32    33   ar
     8    33    27    1
     9    27    21    1
    10    21    22   ar
    11    22    23   ar
    12    23    24   ar
    13    24    25   ar
    14    25    26   ar
    15    26    20    1
    16    20     1    1
    17     1     2    1
    18     2     3    1
    19     3     4    1
    20     4     5    1
    21     5     6    1
    22     4     7    1
    23     7     8    1
    24     8     9    1
    25     9    10   am
    26    10    11    2
    27    10    14    1
    28    14    15   ar
    29    15    16   ar
    30    16    17   ar
    31    17    18   ar
    32    18    19   ar
    33     9    12    1
    34    12    13    1
    35    33    28   ar
    36    26    21   ar
    37     6     1    1
    38    19    14   ar
    39    13     4    1
@<TRIPOS>MOLECULE
*****
 35 39 0 0 0
SMALL
GASTEIGER

@<TRIPOS>ATOM
      1 N         138.9798  141.6413  160.0623 N.3     1  UNL1       -0.2689
      2 C         138.4367  140.3449  159.5385 C.3     1  UNL1        0.0724
      3 C         139.3178  139.4307  158.7398 C.3     1  UNL1        0.0175
      4 C         140.7420  139.8130  158.4648 C.3     1  UNL1        0.0060
      5 C         141.2851  141.1094  158.9886 C.3     1  UNL1        0.0175
      6 C         140.4040  142.0235  159.7873 C.3     1  UNL1        0.0724
      7 C         140.1989  138.5165  157.9410 C.3     1  UNL1        0.0217
      8 C         141.0800  137.6024  157.1423 C.3     1  UNL1        0.0937
      9 N         142.5042  137.9847  156.8674 N.am    1  UNL1       -0.2761
     10 C         143.3853  137.0704  156.0686 C.2     1  UNL1        0.2491
     11 O         144.8095  137.4527  155.7937 O.2     1  UNL1       -0.2699
     12 C         143.0473  139.2810  157.3912 C.3     1  UNL1        0.0937
     13 C         142.1662  140.1953  158.1899 C.3     1  UNL1        0.0217
     14 C         142.8422  135.7741  155.5448 C.ar    1  UNL1        0.0567
     15 C         142.2911  135.7000  154.1517 C.ar    1  UNL1        0.0252
     16 C         141.7480  134.4036  153.6279 C.ar    1  UNL1        0.0990
     17 N         141.7561  133.1812  154.4973 N.ar    1  UNL1       -0.2423
     18 C         142.3072  133.2553  155.8904 C.ar    1  UNL1        0.0990
     19 C         142.8503  134.5517  156.4142 C.ar    1  UNL1        0.0252
     20 C         138.0987  142.5555  160.8610 C.3     1  UNL1        0.1022
     21 C         138.4901  141.9507  163.3572 C.ar    1  UNL1        0.1427
     22 C         138.8915  142.3561  164.7446 C.ar    1  UNL1        0.0372
     23 C         139.3027  143.7714  165.0230 C.ar    1  UNL1        0.0031
     24 C         139.3127  144.7815  163.9141 C.ar    1  UNL1       -0.0001
     25 C         138.9113  144.3762  162.5268 C.ar    1  UNL1        0.0001
     26 C         138.5000  142.9608  162.2483 C.ar    1  UNL1        0.0284
     27 O         138.0788  140.5353  163.0788 O.3     1  UNL1       -0.4507
     28 C         138.9292  138.6969  164.7058 C.ar    1  UNL1        0.1730
     29 C         139.8681  137.5685  165.0144 C.ar    1  UNL1        0.0401
     30 C         140.8955  137.1502  164.0048 C.ar    1  UNL1        0.0033
     31 C         140.9841  137.8603  162.6865 C.ar    1  UNL1        0.0033
     32 C         140.0452  138.9887  162.3778 C.ar    1  UNL1        0.0406
     33 C         139.0177  139.4070  163.3875 C.ar    1  UNL1        0.1789
     34 C         137.6912  138.2965  166.9546 C.3     1  UNL1        0.2526
     35 O         137.9017  139.1151  165.7155 O.3     1  UNL1       -0.4684
@<TRIPOS>BOND
     1    34    35    1
     2    35    28    1
     3    28    29   ar
     4    29    30   ar
     5    30    31   ar
     6    31    32   ar
     7    32    33   ar
     8    33    27    1
     9    27    21    1
    10    21    22   ar
    11    22    23   ar
    12    23    24   ar
    13    24    25   ar
    14    25    26   ar
    15    26    20    1
    16    20     1    1
    17     1     2    1
    18     2     3    1
    19     3     4    1
    20     4     5    1
    21     5     6    1
    22     4     7    1
    23     7     8    1
    24     8     9    1
    25     9    10   am
    26    10    11    2
    27    10    14    1
    28    14    15   ar
    29    15    16   ar
    30    16    17   ar
    31    17    18   ar
    32    18    19   ar
    33     9    12    1
    34    12    13    1
    35    33    28   ar
    36    26    21   ar
    37     6     1    1
    38    19    14   ar
    39    13     4    1
@<TRIPOS>MOLECULE
*****
 35 39 0 0 0
SMALL
GASTEIGER

@<TRIPOS>ATOM
      1 N         142.9663  138.5864  161.7041 N.3     1  UNL1       -0.2689
      2 C         143.6484  139.3621  162.7918 C.3     1  UNL1        0.0724
      3 C         142.9432  139.6085  164.0925 C.3     1  UNL1        0.0175
      4 C         141.5559  139.0793  164.3055 C.3     1  UNL1        0.0060
      5 C         140.8738  138.3037  163.2178 C.3     1  UNL1        0.0175
      6 C         141.5790  138.0572  161.9171 C.3     1  UNL1        0.0724
      7 C         142.2379  139.8550  165.3933 C.3     1  UNL1        0.0217
      8 C         141.5327  140.1014  166.6940 C.3     1  UNL1        0.0937
      9 N         140.1454  139.5722  166.9070 N.am    1  UNL1       -0.2761
     10 C         139.4402  139.8186  168.2078 C.2     1  UNL1        0.2491
     11 O         138.0529  139.2894  168.4208 O.2     1  UNL1       -0.2699
     12 C         139.4634  138.7965  165.8193 C.3     1  UNL1        0.0937
     13 C         140.1686  138.5501  164.5185 C.3     1  UNL1        0.0217
     14 C         140.1222  140.5943  169.2955 C.ar    1  UNL1        0.0567
     15 C         141.0735  139.9026  170.2266 C.ar    1  UNL1        0.0252
     16 C         141.7555  140.6783  171.3143 C.ar    1  UNL1        0.0990
     17 N         141.4864  142.1456  171.4710 N.ar    1  UNL1       -0.2423
     18 C         140.5352  142.8373  170.5399 C.ar    1  UNL1        0.0990
     19 C         139.8531  142.0616  169.4522 C.ar    1  UNL1        0.0252
     20 C         143.6715  138.3400  160.4033 C.3     1  UNL1        0.1022
     21 C         142.6382  140.0755  158.7693 C.ar    1  UNL1        0.1427
     22 C         141.9529  140.3916  157.4729 C.ar    1  UNL1        0.0372
     23 C         141.6157  139.2883  156.5144 C.ar    1  UNL1        0.0031
     24 C         141.9638  137.8688  156.8521 C.ar    1  UNL1       -0.0001
     25 C         142.6490  137.5527  158.1484 C.ar    1  UNL1        0.0001
     26 C         142.9863  138.6561  159.1070 C.ar    1  UNL1        0.0284
     27 O         142.9754  141.1789  159.7279 O.3     1  UNL1       -0.4507
     28 C         142.4174  142.4369  161.9315 C.ar    1  UNL1        0.1730
     29 C         141.4201  142.8599  162.9691 C.ar    1  UNL1        0.0401
     30 C         139.9836  142.4478  162.8406 C.ar    1  UNL1        0.0033
     31 C         139.5443  141.6127  161.6745 C.ar    1  UNL1        0.0033
     32 C         140.5415  141.1897  160.6369 C.ar    1  UNL1        0.0406
     33 C         141.9781  141.6018  160.7655 C.ar    1  UNL1        0.1789
     34 C         144.1996  144.2076  162.5935 C.3     1  UNL1        0.2526
     35 O         143.8540  142.8490  162.0600 O.3     1  UNL1       -0.4684
@<TRIPOS>BOND
     1    34    35    1
     2    35    28    1
     3    28    29   ar
     4    29    30   ar
     5    30    31   ar
     6    31    32   ar
     7    32    33   ar
     8    33    27    1
     9    27    21    1
    10    21    22   ar
    11    22    23   ar
    12    23    24   ar
    13    24    25   ar
    14    25    26   ar
    15    26    20    1
    16    20     1    1
    17     1     2    1
    18     2     3    1
    19     3     4    1
    20     4     5    1
    21     5     6    1
    22     4     7    1
    23     7     8    1
    24     8     9    1
    25     9    10   am
    26    10    11    2
    27    10    14    1
    28    14    15   ar
    29    15    16   ar
    30    16    17   ar
    31    17    18   ar
    32    18    19   ar
    33     9    12    1
    34    12    13    1
    35    33    28   ar
    36    26    21   ar
    37     6     1    1
    38    19    14   ar
    39    13     4    1
@<TRIPOS>MOLECULE
*****
 35 39 0 0 0
SMALL
GASTEIGER

@<TRIPOS>ATOM
      1 N         143.2823  138.8201  162.4665 N.3     1  UNL1       -0.2689
      2 C         144.0015  138.1460  161.3359 C.3     1  UNL1        0.0724
      3 C         143.2975  137.9131  160.0320 C.3     1  UNL1        0.0175
      4 C         141.8744  138.3543  159.8588 C.3     1  UNL1        0.0060
      5 C         141.1552  139.0283  160.9894 C.3     1  UNL1        0.0175
      6 C         141.8591  139.2612  162.2933 C.3     1  UNL1        0.0724
      7 C         142.5936  137.6802  158.7280 C.3     1  UNL1        0.0217
      8 C         141.8896  137.4473  157.4242 C.3     1  UNL1        0.0937
      9 N         140.4664  137.8885  157.2509 N.am    1  UNL1       -0.2761
     10 C         139.7625  137.6555  155.9469 C.2     1  UNL1        0.2491
     11 O         138.3393  138.0967  155.7737 O.2     1  UNL1       -0.2699
     12 C         139.7473  138.5625  158.3815 C.3     1  UNL1        0.0937
     13 C         140.4512  138.7954  159.6855 C.3     1  UNL1        0.0217
     14 C         140.4817  136.9815  154.8163 C.ar    1  UNL1        0.0567
     15 C         140.9987  137.7936  153.6660 C.ar    1  UNL1        0.0252
     16 C         141.7179  137.1195  152.5354 C.ar    1  UNL1        0.0990
     17 N         141.9201  135.6333  152.5550 N.ar    1  UNL1       -0.2423
     18 C         141.4031  134.8212  153.7053 C.ar    1  UNL1        0.0990
     19 C         140.6839  135.4953  154.8360 C.ar    1  UNL1        0.0252
     20 C         143.9862  139.0530  163.7705 C.3     1  UNL1        0.1022
     21 C         143.0504  140.8158  165.4338 C.ar    1  UNL1        0.1427
     22 C         143.0930  142.1927  166.0277 C.ar    1  UNL1        0.0372
     23 C         144.1140  143.1833  165.5521 C.ar    1  UNL1        0.0031
     24 C         145.0924  142.7972  164.4827 C.ar    1  UNL1       -0.0001
     25 C         145.0498  141.4205  163.8888 C.ar    1  UNL1        0.0001
     26 C         144.0288  140.4297  164.3644 C.ar    1  UNL1        0.0284
     27 O         142.0294  139.8252  165.9093 O.3     1  UNL1       -0.4507
     28 C         140.1919  140.2304  167.7007 C.ar    1  UNL1        0.1730
     29 C         139.7548  140.2340  169.1356 C.ar    1  UNL1        0.0401
     30 C         140.7184  139.8360  170.2141 C.ar    1  UNL1        0.0033
     31 C         142.1190  139.4344  169.8577 C.ar    1  UNL1        0.0033
     32 C         142.5560  139.4308  168.4228 C.ar    1  UNL1        0.0406
     33 C         141.5924  139.8288  167.3443 C.ar    1  UNL1        0.1789
     34 C         138.4523  139.5777  165.8846 C.3     1  UNL1        0.2526
     35 O         139.2282  140.6284  166.6222 O.3     1  UNL1       -0.4684
@<TRIPOS>BOND
     1    34    35    1
     2    35    28    1
     3    28    29   ar
     4    29    30   ar
     5    30    31   ar
     6    31    32   ar
     7    32    33   ar
     8    33    27    1
     9    27    21    1
    10    21    22   ar
    11    22    23   ar
    12    23    24   ar
    13    24    25   ar
    14    25    26   ar
    15    26    20    1
    16    20     1    1
    17     1     2    1
    18     2     3    1
    19     3     4    1
    20     4     5    1
    21     5     6    1
    22     4     7    1
    23     7     8    1
    24     8     9    1
    25     9    10   am
    26    10    11    2
    27    10    14    1
    28    14    15   ar
    29    15    16   ar
    30    16    17   ar
    31    17    18   ar
    32    18    19   ar
    33     9    12    1
    34    12    13    1
    35    33    28   ar
    36    26    21   ar
    37     6     1    1
    38    19    14   ar
    39    13     4    1
@<TRIPOS>MOLECULE
*****
 35 39 0 0 0
SMALL
GASTEIGER

@<TRIPOS>ATOM
      1 N         140.3774  141.4628  164.6985 N.3     1  UNL1       -0.2689
      2 C         140.8825  142.5162  163.7577 C.3     1  UNL1        0.0724
      3 C         141.4369  142.1238  162.4203 C.3     1  UNL1        0.0175
      4 C         141.4863  140.6780  162.0237 C.3     1  UNL1        0.0060
      5 C         140.9812  139.6246  162.9645 C.3     1  UNL1        0.0175
      6 C         140.4268  140.0170  164.3019 C.3     1  UNL1        0.0724
      7 C         141.9914  141.7315  161.0828 C.3     1  UNL1        0.0217
      8 C         142.5458  141.3391  159.7455 C.3     1  UNL1        0.0937
      9 N         142.5951  139.8933  159.3489 N.am    1  UNL1       -0.2761
     10 C         143.1495  139.5010  158.0114 C.2     1  UNL1        0.2491
     11 O         143.1989  138.0552  157.6148 O.2     1  UNL1       -0.2699
     12 C         142.0900  138.8399  160.2897 C.3     1  UNL1        0.0937
     13 C         141.5356  139.2322  161.6271 C.3     1  UNL1        0.0217
     14 C         143.6546  140.5544  157.0706 C.ar    1  UNL1        0.0567
     15 C         145.0891  140.9888  157.1313 C.ar    1  UNL1        0.0252
     16 C         145.5941  142.0422  156.1905 C.ar    1  UNL1        0.0990
     17 N         144.6647  142.6613  155.1889 N.ar    1  UNL1       -0.2423
     18 C         143.2303  142.2269  155.1282 C.ar    1  UNL1        0.0990
     19 C         142.7252  141.1734  156.0691 C.ar    1  UNL1        0.0252
     20 C         139.8230  141.8551  166.0360 C.3     1  UNL1        0.1022
     21 C         141.8737  141.6502  167.6179 C.ar    1  UNL1        0.1427
     22 C         142.4974  141.1176  168.8739 C.ar    1  UNL1        0.0372
     23 C         141.6940  140.2575  169.8038 C.ar    1  UNL1        0.0031
     24 C         140.2670  139.9299  169.4778 C.ar    1  UNL1       -0.0001
     25 C         139.6433  140.4624  168.2218 C.ar    1  UNL1        0.0001
     26 C         140.4467  141.3226  167.2919 C.ar    1  UNL1        0.0284
     27 O         142.6770  142.5103  166.6880 O.3     1  UNL1       -0.4507
     28 C         144.4049  142.7351  164.7609 C.ar    1  UNL1        0.1730
     29 C         145.2886  142.1009  163.7279 C.ar    1  UNL1        0.0401
     30 C         145.3279  140.6079  163.5890 C.ar    1  UNL1        0.0033
     31 C         144.4836  139.7490  164.4832 C.ar    1  UNL1        0.0033
     32 C         143.6000  140.3831  165.5162 C.ar    1  UNL1        0.0406
     33 C         143.5607  141.8762  165.6550 C.ar    1  UNL1        0.1789
     34 C         143.6051  145.0541  163.9052 C.3     1  UNL1        0.2526
     35 O         144.3656  144.2282  164.8998 O.3     1  UNL1       -0.4684
@<TRIPOS>BOND
     1    34    35    1
     2    35    28    1
     3    28    29   ar
     4    29    30   ar
     5    30    31   ar
     6    31    32   ar
     7    32    33   ar
     8    33    27    1
     9    27    21    1
    10    21    22   ar
    11    22    23   ar
    12    23    24   ar
    13    24    25   ar
    14    25    26   ar
    15    26    20    1
    16    20     1    1
    17     1     2    1
    18     2     3    1
    19     3     4    1
    20     4     5    1
    21     5     6    1
    22     4     7    1
    23     7     8    1
    24     8     9    1
    25     9    10   am
    26    10    11    2
    27    10    14    1
    28    14    15   ar
    29    15    16   ar
    30    16    17   ar
    31    17    18   ar
    32    18    19   ar
    33     9    12    1
    34    12    13    1
    35    33    28   ar
    36    26    21   ar
    37     6     1    1
    38    19    14   ar
    39    13     4    1
@<TRIPOS>MOLECULE
*****
 35 39 0 0 0
SMALL
GASTEIGER

@<TRIPOS>ATOM
      1 N         140.3426  140.2566  161.2649 N.3     1  UNL1       -0.2689
      2 C         141.2723  140.9297  162.2306 C.3     1  UNL1        0.0724
      3 C         141.0026  140.8589  163.7044 C.3     1  UNL1        0.0175
      4 C         139.8033  140.1150  164.2126 C.3     1  UNL1        0.0060
      5 C         138.8736  139.4419  163.2469 C.3     1  UNL1        0.0175
      6 C         139.1433  139.5127  161.7731 C.3     1  UNL1        0.0724
      7 C         140.7329  140.7881  165.1784 C.3     1  UNL1        0.0217
      8 C         140.4633  140.7173  166.6522 C.3     1  UNL1        0.0937
      9 N         139.2639  139.9733  167.1603 N.am    1  UNL1       -0.2761
     10 C         138.9943  139.9026  168.6342 C.2     1  UNL1        0.2491
     11 O         137.7950  139.1586  169.1424 O.2     1  UNL1       -0.2699
     12 C         138.3343  139.3002  166.1946 C.3     1  UNL1        0.0937
     13 C         138.6039  139.3710  164.7207 C.3     1  UNL1        0.0217
     14 C         139.9240  140.5757  169.5999 C.ar    1  UNL1        0.0567
     15 C         141.1535  139.8621  170.0787 C.ar    1  UNL1        0.0252
     16 C         142.0831  140.5352  171.0444 C.ar    1  UNL1        0.0990
     17 N         141.7833  141.9220  171.5314 N.ar    1  UNL1       -0.2423
     18 C         140.5538  142.6355  171.0527 C.ar    1  UNL1        0.0990
     19 C         139.6241  141.9623  170.0869 C.ar    1  UNL1        0.0252
     20 C         140.6122  140.3274  159.7910 C.3     1  UNL1        0.1022
     21 C         142.1493  142.3680  159.3182 C.ar    1  UNL1        0.1427
     22 C         143.4485  142.9277  158.8195 C.ar    1  UNL1        0.0372
     23 C         144.5098  142.0067  158.2948 C.ar    1  UNL1        0.0031
     24 C         144.2719  140.5259  158.2688 C.ar    1  UNL1       -0.0001
     25 C         142.9728  139.9661  158.7675 C.ar    1  UNL1        0.0001
     26 C         141.9114  140.8872  159.2923 C.ar    1  UNL1        0.0284
     27 O         141.0880  143.2890  159.8429 O.3     1  UNL1       -0.4507
     28 C         140.0507  144.3478  161.9767 C.ar    1  UNL1        0.1730
     29 C         140.2196  145.0006  163.3166 C.ar    1  UNL1        0.0401
     30 C         141.5947  145.2474  163.8626 C.ar    1  UNL1        0.0033
     31 C         142.8010  144.8413  163.0688 C.ar    1  UNL1        0.0033
     32 C         142.6321  144.1885  161.7289 C.ar    1  UNL1        0.0406
     33 C         141.2569  143.9418  161.1828 C.ar    1  UNL1        0.1789
     34 C         137.9120  142.8786  161.8457 C.3     1  UNL1        0.2526
     35 O         138.6756  144.1011  161.4306 O.3     1  UNL1       -0.4684
@<TRIPOS>BOND
     1    34    35    1
     2    35    28    1
     3    28    29   ar
     4    29    30   ar
     5    30    31   ar
     6    31    32   ar
     7    32    33   ar
     8    33    27    1
     9    27    21    1
    10    21    22   ar
    11    22    23   ar
    12    23    24   ar
    13    24    25   ar
    14    25    26   ar
    15    26    20    1
    16    20     1    1
    17     1     2    1
    18     2     3    1
    19     3     4    1
    20     4     5    1
    21     5     6    1
    22     4     7    1
    23     7     8    1
    24     8     9    1
    25     9    10   am
    26    10    11    2
    27    10    14    1
    28    14    15   ar
    29    15    16   ar
    30    16    17   ar
    31    17    18   ar
    32    18    19   ar
    33     9    12    1
    34    12    13    1
    35    33    28   ar
    36    26    21   ar
    37     6     1    1
    38    19    14   ar
    39    13     4    1
