@<TRIPOS>MOLECULE
*****
 29 33 0 0 0
SMALL
GASTEIGER

@<TRIPOS>ATOM
      1 N         141.2266  138.0639  163.8165 N.3     1  UNL1       -0.2695
      2 C         140.0904  138.2815  164.7714 C.3     1  UNL1        0.0939
      3 C         140.3502  138.8790  166.1225 C.3     1  UNL1        0.1095
      4 N         141.7461  139.2588  166.5188 N.pl3   1  UNL1       -0.2899
      5 C         142.8823  139.0412  165.5640 C.3     1  UNL1        0.1095
      6 C         142.6226  138.4438  164.2129 C.3     1  UNL1        0.0939
      7 C         142.0059  139.8563  167.8700 C.ar    1  UNL1        0.1400
      8 N         142.8390  139.2466  168.9582 N.ar    1  UNL1       -0.1943
      9 S         142.8262  140.1818  170.1309 S.2     1  UNL1        0.0144
     10 C         141.9850  141.3695  169.7675 C.ar    1  UNL1        0.0502
     11 C         141.6153  142.6081  170.5283 C.ar    1  UNL1        0.0080
     12 C         140.7386  143.6457  169.8919 C.ar    1  UNL1        0.0006
     13 C         140.2316  143.4444  168.4946 C.ar    1  UNL1        0.0001
     14 C         140.6013  142.2057  167.7336 C.ar    1  UNL1        0.0033
     15 C         141.4781  141.1683  168.3701 C.ar    1  UNL1        0.0396
     16 C         140.9668  137.4665  162.4654 C.3     1  UNL1        0.0769
     17 C         140.6957  138.3586  161.2904 C.3     1  UNL1        0.0445
     18 O         138.9900  145.9910  161.9691 O.2     1  UNL1       -0.2744
     19 C         139.0333  144.4943  161.8786 C.2     1  UNL1        0.2306
     20 C         140.2589  143.6597  161.6525 C.3     1  UNL1        0.1129
     21 C         139.8416  142.2191  161.6324 C.ar    1  UNL1        0.0002
     22 C         140.6209  140.9509  161.4472 C.ar    1  UNL1       -0.0059
     23 C         139.9165  139.6268  161.4757 C.ar    1  UNL1       -0.0104
     24 C         138.4328  139.5710  161.6894 C.ar    1  UNL1        0.0550
     25 CL        137.7284  138.2471  161.7178 Cl      1  UNL1       -0.0825
     26 C         137.6536  140.8393  161.8746 C.ar    1  UNL1        0.0254
     27 C         138.3580  142.1633  161.8462 C.ar    1  UNL1        0.0476
     28 N         137.8584  143.5695  161.9983 N.am    1  UNL1       -0.2839
     29 H         136.9235  143.8382  162.1501 H       1  UNL1        0.1549
@<TRIPOS>BOND
     1    18    19    2
     2    19    20    1
     3    20    21    1
     4    21    22   ar
     5    22    23   ar
     6    23    17    1
     7    17    16    1
     8    16     1    1
     9     1     2    1
    10     2     3    1
    11     3     4    1
    12     4     7    1
    13     7     8   ar
    14     8     9   ar
    15     9    10   ar
    16    10    11   ar
    17    11    12   ar
    18    12    13   ar
    19    13    14   ar
    20    14    15   ar
    21     4     5    1
    22     5     6    1
    23    23    24   ar
    24    24    25    1
    25    24    26   ar
    26    26    27   ar
    27    27    28    1
    28    28    19   am
    29    27    21   ar
    30     6     1    1
    31    15     7   ar
    32    15    10   ar
    33    28    29    1
@<TRIPOS>MOLECULE
*****
 29 33 0 0 0
SMALL
GASTEIGER

@<TRIPOS>ATOM
      1 N         143.0560  139.1919  163.2610 N.3     1  UNL1       -0.2695
      2 C         144.2291  139.2034  164.1958 C.3     1  UNL1        0.0939
      3 C         144.0147  139.4117  165.6657 C.3     1  UNL1        0.1095
      4 N         142.6273  139.6084  166.2009 N.pl3   1  UNL1       -0.2899
      5 C         141.4542  139.5969  165.2661 C.3     1  UNL1        0.1095
      6 C         141.6686  139.3886  163.7962 C.3     1  UNL1        0.0939
      7 C         142.4129  139.8166  167.6708 C.ar    1  UNL1        0.1400
      8 N         142.8798  138.9061  168.7676 N.ar    1  UNL1       -0.1943
      9 S         142.4494  139.4987  170.0767 S.2     1  UNL1        0.0144
     10 C         141.7165  140.7755  169.7889 C.ar    1  UNL1        0.0502
     11 C         141.0669  141.7845  170.6887 C.ar    1  UNL1        0.0080
     12 C         140.3946  142.9902  170.1016 C.ar    1  UNL1        0.0006
     13 C         140.3720  143.1866  168.6147 C.ar    1  UNL1        0.0001
     14 C         141.0217  142.1775  167.7148 C.ar    1  UNL1        0.0033
     15 C         141.6940  140.9720  168.3019 C.ar    1  UNL1        0.0396
     16 C         143.2703  138.9837  161.7911 C.3     1  UNL1        0.0769
     17 C         143.6852  140.1346  160.9232 C.3     1  UNL1        0.0445
     18 O         139.1173  146.5114  161.2314 O.2     1  UNL1       -0.2744
     19 C         140.1759  145.4527  161.3238 C.2     1  UNL1        0.2306
     20 C         140.0943  144.0714  160.7447 C.3     1  UNL1        0.1129
     21 C         141.3699  143.3543  161.0745 C.ar    1  UNL1        0.0002
     22 C         141.8517  141.9684  160.7631 C.ar    1  UNL1       -0.0059
     23 C         143.2034  141.5206  161.2346 C.ar    1  UNL1       -0.0104
     24 C         144.0734  142.4588  162.0175 C.ar    1  UNL1        0.0550
     25 CL        145.4251  142.0110  162.4890 Cl      1  UNL1       -0.0825
     26 C         143.5916  143.8448  162.3289 C.ar    1  UNL1        0.0254
     27 C         142.2399  144.2925  161.8575 C.ar    1  UNL1        0.0476
     28 N         141.5019  145.5893  162.0115 N.am    1  UNL1       -0.2839
     29 H         141.8303  146.3897  162.4814 H       1  UNL1        0.1549
@<TRIPOS>BOND
     1    18    19    2
     2    19    20    1
     3    20    21    1
     4    21    22   ar
     5    22    23   ar
     6    23    17    1
     7    17    16    1
     8    16     1    1
     9     1     2    1
    10     2     3    1
    11     3     4    1
    12     4     7    1
    13     7     8   ar
    14     8     9   ar
    15     9    10   ar
    16    10    11   ar
    17    11    12   ar
    18    12    13   ar
    19    13    14   ar
    20    14    15   ar
    21     4     5    1
    22     5     6    1
    23    23    24   ar
    24    24    25    1
    25    24    26   ar
    26    26    27   ar
    27    27    28    1
    28    28    19   am
    29    27    21   ar
    30     6     1    1
    31    15     7   ar
    32    15    10   ar
    33    28    29    1
@<TRIPOS>MOLECULE
*****
 29 33 0 0 0
SMALL
GASTEIGER

@<TRIPOS>ATOM
      1 N         139.9880  138.6349  163.4060 N.3     1  UNL1       -0.2695
      2 C         138.9025  139.5300  163.9261 C.3     1  UNL1        0.0939
      3 C         138.9435  140.0114  165.3463 C.3     1  UNL1        0.1095
      4 N         140.0699  139.5976  166.2462 N.pl3   1  UNL1       -0.2899
      5 C         141.1554  138.7024  165.7261 C.3     1  UNL1        0.1095
      6 C         141.1144  138.2211  164.3061 C.3     1  UNL1        0.0939
      7 C         140.1109  140.0790  167.6663 C.ar    1  UNL1        0.1400
      8 N         139.0963  139.7774  168.7292 N.ar    1  UNL1       -0.1943
      9 S         139.5320  140.4585  169.9926 S.2     1  UNL1        0.0144
     10 C         140.8160  141.1810  169.7106 C.ar    1  UNL1        0.0502
     11 C         141.7056  142.0221  170.5772 C.ar    1  UNL1        0.0080
     12 C         142.9530  142.6288  170.0061 C.ar    1  UNL1        0.0006
     13 C         143.3107  142.3943  168.5684 C.ar    1  UNL1        0.0001
     14 C         142.4211  141.5531  167.7017 C.ar    1  UNL1        0.0033
     15 C         141.1738  140.9465  168.2728 C.ar    1  UNL1        0.0396
     16 C         139.9470  138.1535  161.9860 C.3     1  UNL1        0.0769
     17 C         141.0773  138.4728  161.0529 C.3     1  UNL1        0.0445
     18 O         144.2267  145.4441  162.8152 O.2     1  UNL1       -0.2744
     19 C         143.8926  144.0128  162.5159 C.2     1  UNL1        0.2306
     20 C         142.5368  143.4801  162.1579 C.3     1  UNL1        0.1129
     21 C         142.6619  142.0009  161.9429 C.ar    1  UNL1        0.0002
     22 C         141.6560  140.9521  161.5712 C.ar    1  UNL1       -0.0059
     23 C         142.0831  139.5216  161.4246 C.ar    1  UNL1       -0.0104
     24 C         143.5162  139.1401  161.6497 C.ar    1  UNL1        0.0550
     25 CL        143.9434  137.7097  161.5031 Cl      1  UNL1       -0.0825
     26 C         144.5221  140.1889  162.0214 C.ar    1  UNL1        0.0254
     27 C         144.0949  141.6193  162.1680 C.ar    1  UNL1        0.0476
     28 N         144.8555  142.8627  162.5221 N.am    1  UNL1       -0.2839
     29 H         145.8178  142.9148  162.7233 H       1  UNL1        0.1549
@<TRIPOS>BOND
     1    18    19    2
     2    19    20    1
     3    20    21    1
     4    21    22   ar
     5    22    23   ar
     6    23    17    1
     7    17    16    1
     8    16     1    1
     9     1     2    1
    10     2     3    1
    11     3     4    1
    12     4     7    1
    13     7     8   ar
    14     8     9   ar
    15     9    10   ar
    16    10    11   ar
    17    11    12   ar
    18    12    13   ar
    19    13    14   ar
    20    14    15   ar
    21     4     5    1
    22     5     6    1
    23    23    24   ar
    24    24    25    1
    25    24    26   ar
    26    26    27   ar
    27    27    28    1
    28    28    19   am
    29    27    21   ar
    30     6     1    1
    31    15     7   ar
    32    15    10   ar
    33    28    29    1
@<TRIPOS>MOLECULE
*****
 29 33 0 0 0
SMALL
GASTEIGER

@<TRIPOS>ATOM
      1 N         140.0003  137.9183  163.2102 N.3     1  UNL1       -0.2695
      2 C         139.1867  138.2202  161.9866 C.3     1  UNL1        0.0939
      3 C         139.8674  138.4317  160.6668 C.3     1  UNL1        0.1095
      4 N         141.3616  138.3413  160.5705 N.pl3   1  UNL1       -0.2899
      5 C         142.1751  138.0394  161.7940 C.3     1  UNL1        0.1095
      6 C         141.4945  137.8278  163.1138 C.3     1  UNL1        0.0939
      7 C         142.0423  138.5528  159.2506 C.ar    1  UNL1        0.1400
      8 N         141.9677  137.6388  158.0636 N.ar    1  UNL1       -0.1943
      9 S         142.7963  138.2366  156.9655 S.2     1  UNL1        0.0144
     10 C         143.3831  139.5202  157.4738 C.ar    1  UNL1        0.0502
     11 C         144.2815  140.5361  156.8331 C.ar    1  UNL1        0.0080
     12 C         144.7139  141.7477  157.6047 C.ar    1  UNL1        0.0006
     13 C         144.2478  141.9431  159.0170 C.ar    1  UNL1        0.0001
     14 C         143.3494  140.9271  159.6577 C.ar    1  UNL1        0.0033
     15 C         142.9170  139.7156  158.8861 C.ar    1  UNL1        0.0396
     16 C         139.3196  137.7068  164.5300 C.3     1  UNL1        0.0769
     17 C         138.4784  138.7977  165.1234 C.3     1  UNL1        0.0445
     18 O         140.6014  142.0748  171.9335 O.2     1  UNL1       -0.2744
     19 C         140.3302  141.6740  170.5137 C.2     1  UNL1        0.2306
     20 C         139.5805  140.4528  170.0701 C.3     1  UNL1        0.1129
     21 C         139.5480  140.4481  168.5705 C.ar    1  UNL1        0.0002
     22 C         138.9483  139.4919  167.5826 C.ar    1  UNL1       -0.0059
     23 C         139.0781  139.7540  166.1113 C.ar    1  UNL1       -0.0104
     24 C         139.8076  140.9723  165.6280 C.ar    1  UNL1        0.0550
     25 CL        139.9374  141.2343  164.1568 Cl      1  UNL1       -0.0825
     26 C         140.4073  141.9285  166.6160 C.ar    1  UNL1        0.0254
     27 C         140.2775  141.6664  168.0872 C.ar    1  UNL1        0.0476
     28 N         140.7609  142.4241  169.2881 N.am    1  UNL1       -0.2839
     29 H         141.2712  143.2658  169.2744 H       1  UNL1        0.1549
@<TRIPOS>BOND
     1    18    19    2
     2    19    20    1
     3    20    21    1
     4    21    22   ar
     5    22    23   ar
     6    23    17    1
     7    17    16    1
     8    16     1    1
     9     1     2    1
    10     2     3    1
    11     3     4    1
    12     4     7    1
    13     7     8   ar
    14     8     9   ar
    15     9    10   ar
    16    10    11   ar
    17    11    12   ar
    18    12    13   ar
    19    13    14   ar
    20    14    15   ar
    21     4     5    1
    22     5     6    1
    23    23    24   ar
    24    24    25    1
    25    24    26   ar
    26    26    27   ar
    27    27    28    1
    28    28    19   am
    29    27    21   ar
    30     6     1    1
    31    15     7   ar
    32    15    10   ar
    33    28    29    1
@<TRIPOS>MOLECULE
*****
 29 33 0 0 0
SMALL
GASTEIGER

@<TRIPOS>ATOM
      1 N         138.6032  139.3794  163.2773 N.3     1  UNL1       -0.2695
      2 C         137.9335  140.7031  163.0550 C.3     1  UNL1        0.0939
      3 C         137.7603  141.2314  161.6618 C.3     1  UNL1        0.1095
      4 N         138.2566  140.4361  160.4910 N.pl3   1  UNL1       -0.2899
      5 C         138.9263  139.1124  160.7132 C.3     1  UNL1        0.1095
      6 C         139.0996  138.5840  162.1063 C.3     1  UNL1        0.0939
      7 C         138.0834  140.9644  159.0978 C.ar    1  UNL1        0.1400
      8 N         137.2398  140.3500  158.0204 N.ar    1  UNL1       -0.1943
      9 S         137.3584  141.2058  156.7942 S.2     1  UNL1        0.0144
     10 C         138.2753  142.3491  157.1137 C.ar    1  UNL1        0.0502
     11 C         138.7600  143.5067  156.2923 C.ar    1  UNL1        0.0080
     12 C         139.6929  144.5153  156.8946 C.ar    1  UNL1        0.0006
     13 C         140.1410  144.3661  158.3183 C.ar    1  UNL1        0.0001
     14 C         139.6562  143.2084  159.1398 C.ar    1  UNL1        0.0033
     15 C         138.7234  142.1999  158.5375 C.ar    1  UNL1        0.0396
     16 C         138.7764  138.8510  164.6704 C.3     1  UNL1        0.0769
     17 C         140.1461  138.5105  165.1784 C.3     1  UNL1        0.0445
     18 O         140.3338  142.2710  172.0666 O.2     1  UNL1       -0.2744
     19 C         140.5847  141.5495  170.7757 C.2     1  UNL1        0.2306
     20 C         139.5375  141.0816  169.8091 C.3     1  UNL1        0.1129
     21 C         140.2325  140.4121  168.6607 C.ar    1  UNL1        0.0002
     22 C         139.7114  139.7602  167.4144 C.ar    1  UNL1       -0.0059
     23 C         140.6672  139.1624  166.4248 C.ar    1  UNL1       -0.0104
     24 C         142.1440  139.2166  166.6816 C.ar    1  UNL1        0.0550
     25 CL        143.0998  138.6189  165.6921 Cl      1  UNL1       -0.0825
     26 C         142.6651  139.8686  167.9281 C.ar    1  UNL1        0.0254
     27 C         141.7093  140.4663  168.9176 C.ar    1  UNL1        0.0476
     28 N         141.9270  141.1692  170.2247 N.am    1  UNL1       -0.2839
     29 H         142.7980  141.3494  170.6468 H       1  UNL1        0.1549
@<TRIPOS>BOND
     1    18    19    2
     2    19    20    1
     3    20    21    1
     4    21    22   ar
     5    22    23   ar
     6    23    17    1
     7    17    16    1
     8    16     1    1
     9     1     2    1
    10     2     3    1
    11     3     4    1
    12     4     7    1
    13     7     8   ar
    14     8     9   ar
    15     9    10   ar
    16    10    11   ar
    17    11    12   ar
    18    12    13   ar
    19    13    14   ar
    20    14    15   ar
    21     4     5    1
    22     5     6    1
    23    23    24   ar
    24    24    25    1
    25    24    26   ar
    26    26    27   ar
    27    27    28    1
    28    28    19   am
    29    27    21   ar
    30     6     1    1
    31    15     7   ar
    32    15    10   ar
    33    28    29    1
@<TRIPOS>MOLECULE
*****
 29 33 0 0 0
SMALL
GASTEIGER

@<TRIPOS>ATOM
      1 N         138.5402  138.8999  163.3186 N.3     1  UNL1       -0.2695
      2 C         138.1059  140.2281  163.8639 C.3     1  UNL1        0.0939
      3 C         138.4833  140.6253  165.2603 C.3     1  UNL1        0.1095
      4 N         139.2950  139.6944  166.1113 N.pl3   1  UNL1       -0.2899
      5 C         139.7294  138.3662  165.5661 C.3     1  UNL1        0.1095
      6 C         139.3520  137.9690  164.1698 C.3     1  UNL1        0.0939
      7 C         139.6724  140.0916  167.5077 C.ar    1  UNL1        0.1400
      8 N         138.9052  139.7661  168.7549 N.ar    1  UNL1       -0.1943
      9 S         139.6419  140.3574  169.9200 S.2     1  UNL1        0.0144
     10 C         140.8646  141.0484  169.3930 C.ar    1  UNL1        0.0502
     11 C         141.9631  141.8059  170.0779 C.ar    1  UNL1        0.0080
     12 C         143.0806  142.3993  169.2721 C.ar    1  UNL1        0.0006
     13 C         143.0994  142.2350  167.7813 C.ar    1  UNL1        0.0001
     14 C         142.0008  141.4775  167.0962 C.ar    1  UNL1        0.0033
     15 C         140.8834  140.8841  167.9020 C.ar    1  UNL1        0.0396
     16 C         138.1629  138.5027  161.9223 C.3     1  UNL1        0.0769
     17 C         139.0516  138.8713  160.7716 C.3     1  UNL1        0.0445
     18 O         146.0812  141.6855  162.8424 O.2     1  UNL1       -0.2744
     19 C         144.6877  141.4166  162.3568 C.2     1  UNL1        0.2306
     20 C         143.9728  140.0992  162.4140 C.3     1  UNL1        0.1129
     21 C         142.6077  140.2863  161.8213 C.ar    1  UNL1        0.0002
     22 C         141.4653  139.3369  161.6126 C.ar    1  UNL1       -0.0059
     23 C         140.1939  139.8207  160.9803 C.ar    1  UNL1       -0.0104
     24 C         140.0650  141.2539  160.5568 C.ar    1  UNL1        0.0550
     25 CL        138.7937  141.7377  159.9246 Cl      1  UNL1       -0.0825
     26 C         141.2075  142.2033  160.7656 C.ar    1  UNL1        0.0254
     27 C         142.4787  141.7195  161.3979 C.ar    1  UNL1        0.0476
     28 N         143.7642  142.4181  161.7288 N.am    1  UNL1       -0.2839
     29 H         143.9664  143.3672  161.5629 H       1  UNL1        0.1549
@<TRIPOS>BOND
     1    18    19    2
     2    19    20    1
     3    20    21    1
     4    21    22   ar
     5    22    23   ar
     6    23    17    1
     7    17    16    1
     8    16     1    1
     9     1     2    1
    10     2     3    1
    11     3     4    1
    12     4     7    1
    13     7     8   ar
    14     8     9   ar
    15     9    10   ar
    16    10    11   ar
    17    11    12   ar
    18    12    13   ar
    19    13    14   ar
    20    14    15   ar
    21     4     5    1
    22     5     6    1
    23    23    24   ar
    24    24    25    1
    25    24    26   ar
    26    26    27   ar
    27    27    28    1
    28    28    19   am
    29    27    21   ar
    30     6     1    1
    31    15     7   ar
    32    15    10   ar
    33    28    29    1
@<TRIPOS>MOLECULE
*****
 29 33 0 0 0
SMALL
GASTEIGER

@<TRIPOS>ATOM
      1 N         144.3082  139.7990  163.7072 N.3     1  UNL1       -0.2695
      2 C         144.7358  141.2315  163.5845 C.3     1  UNL1        0.0939
      3 C         144.5700  141.9547  162.2808 C.3     1  UNL1        0.1095
      4 N         143.9766  141.2453  161.0998 N.pl3   1  UNL1       -0.2899
      5 C         143.5491  139.8127  161.2226 C.3     1  UNL1        0.1095
      6 C         143.7148  139.0896  162.5262 C.3     1  UNL1        0.0939
      7 C         143.8108  141.9684  159.7961 C.ar    1  UNL1        0.1400
      8 N         144.4981  141.6299  158.5065 N.ar    1  UNL1       -0.1943
      9 S         144.0406  142.6093  157.4665 S.2     1  UNL1        0.0144
     10 C         143.0706  143.5530  158.1134 C.ar    1  UNL1        0.0502
     11 C         142.2983  144.7218  157.5774 C.ar    1  UNL1        0.0080
     12 C         141.3839  145.4947  158.4812 C.ar    1  UNL1        0.0006
     13 C         141.2419  145.0986  159.9209 C.ar    1  UNL1        0.0001
     14 C         142.0142  143.9297  160.4570 C.ar    1  UNL1        0.0033
     15 C         142.9285  143.1569  159.5532 C.ar    1  UNL1        0.0396
     16 C         144.4740  139.0759  165.0109 C.3     1  UNL1        0.0769
     17 C         143.2892  138.4307  165.6667 C.3     1  UNL1        0.0445
     18 O         140.5187  142.0193  172.0752 O.2     1  UNL1       -0.2744
     19 C         140.8113  141.4376  170.7240 C.2     1  UNL1        0.2306
     20 C         142.0085  140.6100  170.3608 C.3     1  UNL1        0.1129
     21 C         141.8953  140.2422  168.9110 C.ar    1  UNL1        0.0002
     22 C         142.7823  139.4383  168.0072 C.ar    1  UNL1       -0.0059
     23 C         142.4022  139.2346  166.5705 C.ar    1  UNL1       -0.0104
     24 C         141.1350  139.8349  166.0376 C.ar    1  UNL1        0.0550
     25 CL        140.7548  139.6312  164.6010 Cl      1  UNL1       -0.0825
     26 C         140.2479  140.6388  166.9415 C.ar    1  UNL1        0.0254
     27 C         140.6281  140.8425  168.3781 C.ar    1  UNL1        0.0476
     28 N         139.9582  141.5812  169.4986 N.am    1  UNL1       -0.2839
     29 H         139.1079  142.0739  169.4400 H       1  UNL1        0.1549
@<TRIPOS>BOND
     1    18    19    2
     2    19    20    1
     3    20    21    1
     4    21    22   ar
     5    22    23   ar
     6    23    17    1
     7    17    16    1
     8    16     1    1
     9     1     2    1
    10     2     3    1
    11     3     4    1
    12     4     7    1
    13     7     8   ar
    14     8     9   ar
    15     9    10   ar
    16    10    11   ar
    17    11    12   ar
    18    12    13   ar
    19    13    14   ar
    20    14    15   ar
    21     4     5    1
    22     5     6    1
    23    23    24   ar
    24    24    25    1
    25    24    26   ar
    26    26    27   ar
    27    27    28    1
    28    28    19   am
    29    27    21   ar
    30     6     1    1
    31    15     7   ar
    32    15    10   ar
    33    28    29    1
@<TRIPOS>MOLECULE
*****
 29 33 0 0 0
SMALL
GASTEIGER

@<TRIPOS>ATOM
      1 N         143.3458  144.1715  162.1266 N.3     1  UNL1       -0.2695
      2 C         142.4254  144.3177  160.9512 C.3     1  UNL1        0.0939
      3 C         142.6314  143.4743  159.7279 C.3     1  UNL1        0.1095
      4 N         143.7577  142.4848  159.6801 N.pl3   1  UNL1       -0.2899
      5 C         144.6780  142.3386  160.8555 C.3     1  UNL1        0.1095
      6 C         144.4721  143.1819  162.0787 C.3     1  UNL1        0.0939
      7 C         143.9637  141.6414  158.4568 C.ar    1  UNL1        0.1400
      8 N         143.0485  140.5579  157.9686 N.ar    1  UNL1       -0.1943
      9 S         143.6402  139.9803  156.7171 S.2     1  UNL1        0.0144
     10 C         144.9212  140.7069  156.4318 C.ar    1  UNL1        0.0502
     11 C         145.9313  140.5663  155.3320 C.ar    1  UNL1        0.0080
     12 C         147.1414  141.4524  155.3073 C.ar    1  UNL1        0.0006
     13 C         147.3413  142.4790  156.3825 C.ar    1  UNL1        0.0001
     14 C         146.3311  142.6196  157.4824 C.ar    1  UNL1        0.0033
     15 C         145.1211  141.7335  157.5071 C.ar    1  UNL1        0.0396
     16 C         143.1399  145.0148  163.3498 C.3     1  UNL1        0.0769
     17 C         141.7544  145.4226  163.7552 C.3     1  UNL1        0.0445
     18 O         137.8835  139.0398  166.1838 O.2     1  UNL1       -0.2744
     19 C         138.3896  140.3054  165.5577 C.2     1  UNL1        0.2306
     20 C         139.7153  140.9534  165.8270 C.3     1  UNL1        0.1129
     21 C         139.8040  142.1937  164.9880 C.ar    1  UNL1        0.0002
     22 C         140.8777  143.2305  164.8397 C.ar    1  UNL1       -0.0059
     23 C         140.6806  144.3858  163.9035 C.ar    1  UNL1       -0.0104
     24 C         139.4097  144.5043  163.1156 C.ar    1  UNL1        0.0550
     25 CL        139.2126  145.6596  162.1795 Cl      1  UNL1       -0.0825
     26 C         138.3359  143.4675  163.2640 C.ar    1  UNL1        0.0254
     27 C         138.5330  142.3122  164.2002 C.ar    1  UNL1        0.0476
     28 N         137.6589  141.1452  164.5522 N.am    1  UNL1       -0.2839
     29 H         136.7629  140.9625  164.1875 H       1  UNL1        0.1549
@<TRIPOS>BOND
     1    18    19    2
     2    19    20    1
     3    20    21    1
     4    21    22   ar
     5    22    23   ar
     6    23    17    1
     7    17    16    1
     8    16     1    1
     9     1     2    1
    10     2     3    1
    11     3     4    1
    12     4     7    1
    13     7     8   ar
    14     8     9   ar
    15     9    10   ar
    16    10    11   ar
    17    11    12   ar
    18    12    13   ar
    19    13    14   ar
    20    14    15   ar
    21     4     5    1
    22     5     6    1
    23    23    24   ar
    24    24    25    1
    25    24    26   ar
    26    26    27   ar
    27    27    28    1
    28    28    19   am
    29    27    21   ar
    30     6     1    1
    31    15     7   ar
    32    15    10   ar
    33    28    29    1
@<TRIPOS>MOLECULE
*****
 29 33 0 0 0
SMALL
GASTEIGER

@<TRIPOS>ATOM
      1 N         139.7299  137.8186  163.7807 N.3     1  UNL1       -0.2695
      2 C         141.2118  138.0495  163.8095 C.3     1  UNL1        0.0939
      3 C         141.9507  138.3389  162.5366 C.3     1  UNL1        0.1095
      4 N         141.2077  138.3973  161.2348 N.pl3   1  UNL1       -0.2899
      5 C         139.7259  138.1665  161.2060 C.3     1  UNL1        0.1095
      6 C         138.9870  137.8771  162.4788 C.3     1  UNL1        0.0939
      7 C         141.9466  138.6867  159.9619 C.ar    1  UNL1        0.1400
      8 N         142.0078  137.7966  158.7561 N.ar    1  UNL1       -0.1943
      9 S         142.8530  138.4768  157.7202 S.2     1  UNL1        0.0144
     10 C         143.3143  139.7873  158.2859 C.ar    1  UNL1        0.0502
     11 C         144.1720  140.8792  157.7185 C.ar    1  UNL1        0.0080
     12 C         144.4696  142.1009  158.5364 C.ar    1  UNL1        0.0006
     13 C         143.9094  142.2306  159.9218 C.ar    1  UNL1        0.0001
     14 C         143.0516  141.1387  160.4893 C.ar    1  UNL1        0.0033
     15 C         142.7541  139.9170  159.6714 C.ar    1  UNL1        0.0396
     16 C         138.9910  137.5292  165.0535 C.3     1  UNL1        0.0769
     17 C         138.2893  138.6370  165.7819 C.3     1  UNL1        0.0445
     18 O         138.2739  145.6162  162.1883 O.2     1  UNL1       -0.2744
     19 C         138.4655  144.4063  163.0539 C.2     1  UNL1        0.2306
     20 C         137.7943  143.0771  162.8726 C.3     1  UNL1        0.1129
     21 C         138.2759  142.1624  163.9595 C.ar    1  UNL1        0.0002
     22 C         137.9574  140.7327  164.2825 C.ar    1  UNL1       -0.0059
     23 C         138.6079  140.0667  165.4588 C.ar    1  UNL1       -0.0104
     24 C         139.5768  140.8305  166.3119 C.ar    1  UNL1        0.0550
     25 CL        140.2272  140.1646  167.4881 Cl      1  UNL1       -0.0825
     26 C         139.8953  142.2603  165.9888 C.ar    1  UNL1        0.0254
     27 C         139.2448  142.9262  164.8126 C.ar    1  UNL1        0.0476
     28 N         139.3620  144.3130  164.2529 N.am    1  UNL1       -0.2839
     29 H         139.9279  145.0352  164.6099 H       1  UNL1        0.1549
@<TRIPOS>BOND
     1    18    19    2
     2    19    20    1
     3    20    21    1
     4    21    22   ar
     5    22    23   ar
     6    23    17    1
     7    17    16    1
     8    16     1    1
     9     1     2    1
    10     2     3    1
    11     3     4    1
    12     4     7    1
    13     7     8   ar
    14     8     9   ar
    15     9    10   ar
    16    10    11   ar
    17    11    12   ar
    18    12    13   ar
    19    13    14   ar
    20    14    15   ar
    21     4     5    1
    22     5     6    1
    23    23    24   ar
    24    24    25    1
    25    24    26   ar
    26    26    27   ar
    27    27    28    1
    28    28    19   am
    29    27    21   ar
    30     6     1    1
    31    15     7   ar
    32    15    10   ar
    33    28    29    1
