@<TRIPOS>MOLECULE
*****
 24 25 0 0 0
SMALL
GASTEIGER

@<TRIPOS>ATOM
      1 N         142.1793  139.8593  167.1303 N.am    1  UNL1       -0.2763
      2 C         142.9147  138.7805  166.3918 C.2     1  UNL1        0.2490
      3 O         144.0206  138.0274  167.0699 O.2     1  UNL1       -0.2699
      4 C         142.5442  138.4548  164.9752 C.ar    1  UNL1        0.0597
      5 C         141.4443  137.4744  164.6942 C.ar    1  UNL1        0.0046
      6 C         141.0737  137.1487  163.2776 C.ar    1  UNL1        0.0024
      7 C         141.8031  137.8033  162.1422 C.ar    1  UNL1        0.0296
      8 C         142.9031  138.7837  162.4232 C.ar    1  UNL1        0.1442
      9 F         143.6325  139.4384  161.2876 F       1  UNL1       -0.2042
     10 C         143.2736  139.1094  163.8397 C.ar    1  UNL1        0.1032
     11 C         144.3735  140.0898  164.1208 C.3     1  UNL1        0.4208
     12 F         145.4734  141.0702  164.4018 F       1  UNL1       -0.1658
     13 F         143.3843  141.2160  164.0637 F       1  UNL1       -0.1658
     14 F         145.3627  138.9637  164.1778 F       1  UNL1       -0.1658
     15 C         142.5498  140.1850  168.5469 C.3     1  UNL1        0.0927
     16 C         142.4042  139.2725  169.7284 C.3     1  UNL1        0.0383
     17 C         142.8953  140.0039  170.9424 C.3     1  UNL1        0.0704
     18 N         143.3446  141.3686  170.5111 N.3     1  UNL1       -0.2960
     19 C         143.1310  141.4805  169.0305 C.3     1  UNL1        0.0887
     20 H         144.3334  141.4923  170.7285 H       1  UNL1        0.1233
     21 C         141.0734  140.6124  166.4522 C.3     1  UNL1        0.0936
     22 C         138.7922  140.0196  165.3590 C.3     1  UNL1        0.0018
     23 C         139.6557  140.1391  166.5797 C.3     1  UNL1        0.0199
     24 C         139.1015  139.7853  167.9279 C.3     1  UNL1        0.0018
@<TRIPOS>BOND
     1    22    23    1
     2    23    24    1
     3    23    21    1
     4    21     1    1
     5     1     2   am
     6     2     3    2
     7     2     4    1
     8     4     5   ar
     9     5     6   ar
    10     6     7   ar
    11     7     8   ar
    12     8     9    1
    13     8    10   ar
    14    10    11    1
    15    11    12    1
    16    11    13    1
    17    11    14    1
    18    15     1    1
    19    15    16    1
    20    16    17    1
    21    17    18    1
    22    18    19    1
    23    10     4   ar
    24    19    15    1
    25    18    20    1
@<TRIPOS>MOLECULE
*****
 24 25 0 0 0
SMALL
GASTEIGER

@<TRIPOS>ATOM
      1 N         139.9426  141.7697  165.6140 N.am    1  UNL1       -0.2763
      2 C         139.9434  141.2005  167.0018 C.2     1  UNL1        0.2490
      3 O         139.1703  139.9501  167.3000 O.2     1  UNL1       -0.2699
      4 C         140.7174  141.8816  168.0914 C.ar    1  UNL1        0.0597
      5 C         140.1510  143.0948  168.7677 C.ar    1  UNL1        0.0046
      6 C         140.9249  143.7759  169.8573 C.ar    1  UNL1        0.0024
      7 C         142.2651  143.2439  170.2705 C.ar    1  UNL1        0.0296
      8 C         142.8314  142.0307  169.5942 C.ar    1  UNL1        0.1442
      9 F         144.1716  141.4986  170.0075 F       1  UNL1       -0.2042
     10 C         142.0575  141.3495  168.5046 C.ar    1  UNL1        0.1032
     11 C         142.6239  140.1363  167.8283 C.3     1  UNL1        0.4208
     12 F         143.1902  138.9231  167.1519 F       1  UNL1       -0.1658
     13 F         143.1779  141.0034  166.7368 F       1  UNL1       -0.1658
     14 F         142.0698  139.2693  168.9197 F       1  UNL1       -0.1658
     15 C         139.1687  141.0886  164.5244 C.3     1  UNL1        0.0927
     16 C         139.6157  139.8886  163.7432 C.3     1  UNL1        0.0383
     17 C         138.5352  139.5463  162.7608 C.3     1  UNL1        0.0704
     18 N         137.4203  140.5347  162.9347 N.3     1  UNL1       -0.2960
     19 C         137.8119  141.4879  164.0248 C.3     1  UNL1        0.0887
     20 H         136.5625  140.0470  163.1930 H       1  UNL1        0.1233
     21 C         140.7158  143.0200  165.3158 C.3     1  UNL1        0.0936
     22 C         140.4985  144.8911  163.5264 C.3     1  UNL1        0.0018
     23 C         140.0083  144.2294  164.7801 C.3     1  UNL1        0.0199
     24 C         138.8107  144.7771  165.4982 C.3     1  UNL1        0.0018
@<TRIPOS>BOND
     1    22    23    1
     2    23    24    1
     3    23    21    1
     4    21     1    1
     5     1     2   am
     6     2     3    2
     7     2     4    1
     8     4     5   ar
     9     5     6   ar
    10     6     7   ar
    11     7     8   ar
    12     8     9    1
    13     8    10   ar
    14    10    11    1
    15    11    12    1
    16    11    13    1
    17    11    14    1
    18    15     1    1
    19    15    16    1
    20    16    17    1
    21    17    18    1
    22    18    19    1
    23    10     4   ar
    24    19    15    1
    25    18    20    1
@<TRIPOS>MOLECULE
*****
 24 25 0 0 0
SMALL
GASTEIGER

@<TRIPOS>ATOM
      1 N         142.8726  140.4214  164.4829 N.am    1  UNL1       -0.2763
      2 C         141.7646  141.2672  165.0370 C.2     1  UNL1        0.2490
      3 O         141.7419  142.7429  164.7692 O.2     1  UNL1       -0.2699
      4 C         140.6794  140.6373  165.8589 C.ar    1  UNL1        0.0597
      5 C         139.4480  140.1012  165.1908 C.ar    1  UNL1        0.0046
      6 C         138.3627  139.4713  166.0127 C.ar    1  UNL1        0.0024
      7 C         138.5089  139.3775  167.5026 C.ar    1  UNL1        0.0296
      8 C         139.7402  139.9137  168.1706 C.ar    1  UNL1        0.1442
      9 F         139.8863  139.8199  169.6606 F       1  UNL1       -0.2042
     10 C         140.8255  140.5435  167.3488 C.ar    1  UNL1        0.1032
     11 C         142.0569  141.0797  168.0168 C.3     1  UNL1        0.4208
     12 F         143.2882  141.6158  168.6849 F       1  UNL1       -0.1658
     13 F         141.4297  142.4408  168.0805 F       1  UNL1       -0.1658
     14 F         142.6840  139.7185  167.9532 F       1  UNL1       -0.1658
     15 C         143.9578  141.0513  163.6610 C.3     1  UNL1        0.0927
     16 C         143.7932  141.6570  162.2987 C.3     1  UNL1        0.0383
     17 C         145.1319  142.1661  161.8528 C.3     1  UNL1        0.0704
     18 N         146.1239  141.8750  162.9397 N.3     1  UNL1       -0.2960
     19 C         145.3983  141.1860  164.0572 C.3     1  UNL1        0.0887
     20 H         146.5327  142.7462  163.2777 H       1  UNL1        0.1233
     21 C         142.8953  138.9456  164.7507 C.3     1  UNL1        0.0936
     22 C         142.3881  138.0350  162.3708 C.3     1  UNL1        0.0018
     23 C         142.1455  138.0085  163.8508 C.3     1  UNL1        0.0199
     24 C         141.1531  137.0449  164.4310 C.3     1  UNL1        0.0018
@<TRIPOS>BOND
     1    22    23    1
     2    23    24    1
     3    23    21    1
     4    21     1    1
     5     1     2   am
     6     2     3    2
     7     2     4    1
     8     4     5   ar
     9     5     6   ar
    10     6     7   ar
    11     7     8   ar
    12     8     9    1
    13     8    10   ar
    14    10    11    1
    15    11    12    1
    16    11    13    1
    17    11    14    1
    18    15     1    1
    19    15    16    1
    20    16    17    1
    21    17    18    1
    22    18    19    1
    23    10     4   ar
    24    19    15    1
    25    18    20    1
@<TRIPOS>MOLECULE
*****
 24 25 0 0 0
SMALL
GASTEIGER

@<TRIPOS>ATOM
      1 N         140.4144  140.3208  167.0224 N.am    1  UNL1       -0.2763
      2 C         139.1419  139.6831  166.5491 C.2     1  UNL1        0.2490
      3 O         138.2609  138.9556  167.5209 O.2     1  UNL1       -0.2699
      4 C         138.7504  139.7729  165.1038 C.ar    1  UNL1        0.0597
      5 C         137.8887  140.9052  164.6291 C.ar    1  UNL1        0.0046
      6 C         137.4972  140.9950  163.1839 C.ar    1  UNL1        0.0024
      7 C         137.9674  139.9525  162.2134 C.ar    1  UNL1        0.0296
      8 C         138.8291  138.8201  162.6881 C.ar    1  UNL1        0.1442
      9 F         139.2992  137.7775  161.7174 F       1  UNL1       -0.2042
     10 C         139.2206  138.7303  164.1333 C.ar    1  UNL1        0.1032
     11 C         140.0822  137.5980  164.6079 C.3     1  UNL1        0.4208
     12 F         140.9439  136.4656  165.0826 F       1  UNL1       -0.1658
     13 F         141.2986  138.3063  164.0895 F       1  UNL1       -0.1658
     14 F         138.8658  136.8897  165.1263 F       1  UNL1       -0.1658
     15 C         140.8058  140.2311  168.4677 C.3     1  UNL1        0.0927
     16 C         140.0778  140.8590  169.6190 C.3     1  UNL1        0.0383
     17 C         140.8161  140.5136  170.8782 C.3     1  UNL1        0.0704
     18 N         142.0006  139.6722  170.5051 N.3     1  UNL1       -0.2960
     19 C         141.9942  139.4976  169.0152 C.3     1  UNL1        0.0887
     20 H         141.9357  138.7618  170.9606 H       1  UNL1        0.1233
     21 C         141.2954  141.0484  166.0506 C.3     1  UNL1        0.0936
     22 C         141.9451  143.2325  164.8026 C.3     1  UNL1        0.0018
     23 C         141.0881  142.5130  165.8016 C.3     1  UNL1        0.0199
     24 C         140.0240  143.2581  166.5515 C.3     1  UNL1        0.0018
@<TRIPOS>BOND
     1    22    23    1
     2    23    24    1
     3    23    21    1
     4    21     1    1
     5     1     2   am
     6     2     3    2
     7     2     4    1
     8     4     5   ar
     9     5     6   ar
    10     6     7   ar
    11     7     8   ar
    12     8     9    1
    13     8    10   ar
    14    10    11    1
    15    11    12    1
    16    11    13    1
    17    11    14    1
    18    15     1    1
    19    15    16    1
    20    16    17    1
    21    17    18    1
    22    18    19    1
    23    10     4   ar
    24    19    15    1
    25    18    20    1
@<TRIPOS>MOLECULE
*****
 24 25 0 0 0
SMALL
GASTEIGER

@<TRIPOS>ATOM
      1 N         141.2288  140.7418  166.3910 N.am    1  UNL1       -0.2763
      2 C         139.8598  140.1351  166.3041 C.2     1  UNL1        0.2490
      3 O         139.2116  139.5678  167.5321 O.2     1  UNL1       -0.2699
      4 C         139.1389  140.0958  164.9892 C.ar    1  UNL1        0.0597
      5 C         138.2533  141.2369  164.5850 C.ar    1  UNL1        0.0046
      6 C         137.5324  141.1976  163.2702 C.ar    1  UNL1        0.0024
      7 C         137.6972  140.0171  162.3596 C.ar    1  UNL1        0.0296
      8 C         138.5828  138.8759  162.7638 C.ar    1  UNL1        0.1442
      9 F         138.7476  137.6954  161.8531 F       1  UNL1       -0.2042
     10 C         139.3037  138.9153  164.0786 C.ar    1  UNL1        0.1032
     11 C         140.1893  137.7741  164.4828 C.3     1  UNL1        0.4208
     12 F         141.0750  136.6329  164.8870 F       1  UNL1       -0.1658
     13 F         139.0534  137.1639  165.2492 F       1  UNL1       -0.1658
     14 F         141.3253  138.3843  163.7164 F       1  UNL1       -0.1658
     15 C         141.9497  140.7812  167.7058 C.3     1  UNL1        0.0927
     16 C         142.2432  142.0103  168.5140 C.3     1  UNL1        0.0383
     17 C         142.9785  141.5871  169.7510 C.3     1  UNL1        0.0704
     18 N         143.1396  140.0963  169.7073 N.3     1  UNL1       -0.2960
     19 C         142.5037  139.5983  168.4433 C.3     1  UNL1        0.0887
     20 H         142.6808  139.6748  170.5150 H       1  UNL1        0.1233
     21 C         141.8771  141.3092  165.1630 C.3     1  UNL1        0.0936
     22 C         144.0805  139.9964  164.7489 C.3     1  UNL1        0.0018
     23 C         143.3707  141.2885  165.0257 C.3     1  UNL1        0.0199
     24 C         144.1544  142.5598  165.1653 C.3     1  UNL1        0.0018
@<TRIPOS>BOND
     1    22    23    1
     2    23    24    1
     3    23    21    1
     4    21     1    1
     5     1     2   am
     6     2     3    2
     7     2     4    1
     8     4     5   ar
     9     5     6   ar
    10     6     7   ar
    11     7     8   ar
    12     8     9    1
    13     8    10   ar
    14    10    11    1
    15    11    12    1
    16    11    13    1
    17    11    14    1
    18    15     1    1
    19    15    16    1
    20    16    17    1
    21    17    18    1
    22    18    19    1
    23    10     4   ar
    24    19    15    1
    25    18    20    1
@<TRIPOS>MOLECULE
*****
 24 25 0 0 0
SMALL
GASTEIGER

@<TRIPOS>ATOM
      1 N         141.0622  142.9421  164.6851 N.am    1  UNL1       -0.2763
      2 C         141.2271  141.4651  164.8878 C.2     1  UNL1        0.2490
      3 O         142.3509  140.7362  164.2126 O.2     1  UNL1       -0.2699
      4 C         140.2681  140.7168  165.7656 C.ar    1  UNL1        0.0597
      5 C         139.0962  140.0036  165.1589 C.ar    1  UNL1        0.0046
      6 C         138.1372  139.2553  166.0367 C.ar    1  UNL1        0.0024
      7 C         138.3502  139.2203  167.5210 C.ar    1  UNL1        0.0296
      8 C         139.5220  139.9335  168.1277 C.ar    1  UNL1        0.1442
      9 F         139.7349  139.8985  169.6121 F       1  UNL1       -0.2042
     10 C         140.4810  140.6818  167.2499 C.ar    1  UNL1        0.1032
     11 C         141.6529  141.3950  167.8566 C.3     1  UNL1        0.4208
     12 F         142.8248  142.1082  168.4632 F       1  UNL1       -0.1658
     13 F         140.7810  142.5804  168.1473 F       1  UNL1       -0.1658
     14 F         142.5248  140.2096  167.5658 F       1  UNL1       -0.1658
     15 C         142.0212  143.6904  163.8073 C.3     1  UNL1        0.0927
     16 C         143.3998  144.1407  164.1905 C.3     1  UNL1        0.0383
     17 C         144.0005  144.8483  163.0122 C.3     1  UNL1        0.0704
     18 N         142.9932  144.8354  161.9007 N.3     1  UNL1       -0.2960
     19 C         141.7699  144.1197  162.3922 C.3     1  UNL1        0.0887
     20 H         143.3774  144.3483  161.0911 H       1  UNL1        0.1233
     21 C         139.9384  143.6710  165.3603 C.3     1  UNL1        0.0936
     22 C         138.3662  143.1085  163.3698 C.3     1  UNL1        0.0018
     23 C         138.6174  143.8211  164.6656 C.3     1  UNL1        0.0199
     24 C         137.5477  144.6837  165.2668 C.3     1  UNL1        0.0018
@<TRIPOS>BOND
     1    22    23    1
     2    23    24    1
     3    23    21    1
     4    21     1    1
     5     1     2   am
     6     2     3    2
     7     2     4    1
     8     4     5   ar
     9     5     6   ar
    10     6     7   ar
    11     7     8   ar
    12     8     9    1
    13     8    10   ar
    14    10    11    1
    15    11    12    1
    16    11    13    1
    17    11    14    1
    18    15     1    1
    19    15    16    1
    20    16    17    1
    21    17    18    1
    22    18    19    1
    23    10     4   ar
    24    19    15    1
    25    18    20    1
@<TRIPOS>MOLECULE
*****
 24 25 0 0 0
SMALL
GASTEIGER

@<TRIPOS>ATOM
      1 N         142.1221  142.0776  166.0633 N.am    1  UNL1       -0.2763
      2 C         140.9022  142.9434  165.9531 C.2     1  UNL1        0.2490
      3 O         140.0625  143.2140  167.1662 O.2     1  UNL1       -0.2699
      4 C         140.5220  143.5386  164.6298 C.ar    1  UNL1        0.0597
      5 C         141.2722  144.7232  164.0969 C.ar    1  UNL1        0.0046
      6 C         140.8920  145.3184  162.7736 C.ar    1  UNL1        0.0024
      7 C         139.7616  144.7291  161.9832 C.ar    1  UNL1        0.0296
      8 C         139.0114  143.5445  162.5161 C.ar    1  UNL1        0.1442
      9 F         137.8809  142.9552  161.7256 F       1  UNL1       -0.2042
     10 C         139.3916  142.9493  163.8393 C.ar    1  UNL1        0.1032
     11 C         138.6414  141.7647  164.3722 C.3     1  UNL1        0.4208
     12 F         137.8911  140.5801  164.9051 F       1  UNL1       -0.1658
     13 F         137.5740  142.6776  164.8988 F       1  UNL1       -0.1658
     14 F         139.7088  140.8518  163.8456 F       1  UNL1       -0.1658
     15 C         142.5024  141.4823  167.3867 C.3     1  UNL1        0.0927
     16 C         143.0252  142.2347  168.5743 C.3     1  UNL1        0.0383
     17 C         143.2725  141.2476  169.6763 C.3     1  UNL1        0.0704
     18 N         142.9025  139.8850  169.1697 N.3     1  UNL1       -0.2960
     19 C         142.4265  140.0301  167.7546 C.3     1  UNL1        0.0887
     20 H         142.1588  139.4915  169.7464 H       1  UNL1        0.1233
     21 C         142.9619  141.8070  164.8502 C.3     1  UNL1        0.0936
     22 C         145.3955  141.7192  163.9446 C.3     1  UNL1        0.0018
     23 C         144.3265  142.4184  164.7310 C.3     1  UNL1        0.0199
     24 C         144.6220  143.7289  165.3983 C.3     1  UNL1        0.0018
@<TRIPOS>BOND
     1    22    23    1
     2    23    24    1
     3    23    21    1
     4    21     1    1
     5     1     2   am
     6     2     3    2
     7     2     4    1
     8     4     5   ar
     9     5     6   ar
    10     6     7   ar
    11     7     8   ar
    12     8     9    1
    13     8    10   ar
    14    10    11    1
    15    11    12    1
    16    11    13    1
    17    11    14    1
    18    15     1    1
    19    15    16    1
    20    16    17    1
    21    17    18    1
    22    18    19    1
    23    10     4   ar
    24    19    15    1
    25    18    20    1
@<TRIPOS>MOLECULE
*****
 24 25 0 0 0
SMALL
GASTEIGER

@<TRIPOS>ATOM
      1 N         142.7964  141.2337  165.4620 N.am    1  UNL1       -0.2763
      2 C         142.7340  140.5680  166.8047 C.2     1  UNL1        0.2490
      3 O         143.0755  139.1134  166.9372 O.2     1  UNL1       -0.2699
      4 C         142.3301  141.3569  168.0149 C.ar    1  UNL1        0.0597
      5 C         143.3578  142.1397  168.7772 C.ar    1  UNL1        0.0046
      6 C         142.9540  142.9285  169.9874 C.ar    1  UNL1        0.0024
      7 C         141.5225  142.9346  170.4353 C.ar    1  UNL1        0.0296
      8 C         140.4948  142.1518  169.6730 C.ar    1  UNL1        0.1442
      9 F         139.0632  142.1579  170.1210 F       1  UNL1       -0.2042
     10 C         140.8986  141.3629  168.4628 C.ar    1  UNL1        0.1032
     11 C         139.8709  140.5801  167.7006 C.3     1  UNL1        0.4208
     12 F         138.8432  139.7973  166.9383 F       1  UNL1       -0.1658
     13 F         139.6715  141.7434  166.7748 F       1  UNL1       -0.1658
     14 F         140.0703  139.4169  168.6263 F       1  UNL1       -0.1658
     15 C         143.2003  140.4449  164.2517 C.3     1  UNL1        0.0927
     16 C         142.2749  139.9060  163.2014 C.3     1  UNL1        0.0383
     17 C         143.1032  139.1845  162.1799 C.3     1  UNL1        0.0704
     18 N         144.5405  139.2775  162.5989 N.3     1  UNL1       -0.2960
     19 C         144.6005  140.0565  163.8795 C.3     1  UNL1        0.0887
     20 H         145.0812  139.7549  161.8777 H       1  UNL1        0.1233
     21 C         142.4550  142.6883  165.3294 C.3     1  UNL1        0.0936
     22 C         144.8273  143.7066  165.6212 C.3     1  UNL1        0.0018
     23 C         143.5078  143.6706  164.9088 C.3     1  UNL1        0.0199
     24 C         143.2411  144.6167  163.7759 C.3     1  UNL1        0.0018
@<TRIPOS>BOND
     1    22    23    1
     2    23    24    1
     3    23    21    1
     4    21     1    1
     5     1     2   am
     6     2     3    2
     7     2     4    1
     8     4     5   ar
     9     5     6   ar
    10     6     7   ar
    11     7     8   ar
    12     8     9    1
    13     8    10   ar
    14    10    11    1
    15    11    12    1
    16    11    13    1
    17    11    14    1
    18    15     1    1
    19    15    16    1
    20    16    17    1
    21    17    18    1
    22    18    19    1
    23    10     4   ar
    24    19    15    1
    25    18    20    1
@<TRIPOS>MOLECULE
*****
 24 25 0 0 0
SMALL
GASTEIGER

@<TRIPOS>ATOM
      1 N         141.4909  141.5843  167.0028 N.am    1  UNL1       -0.2763
      2 C         141.1546  140.1233  167.0492 C.2     1  UNL1        0.2490
      3 O         140.7631  139.4847  168.3488 O.2     1  UNL1       -0.2699
      4 C         141.2099  139.3007  165.7961 C.ar    1  UNL1        0.0597
      5 C         142.5258  139.0491  165.1215 C.ar    1  UNL1        0.0046
      6 C         142.5811  138.2266  163.8684 C.ar    1  UNL1        0.0024
      7 C         141.3204  137.6557  163.2898 C.ar    1  UNL1        0.0296
      8 C         140.0045  137.9073  163.9644 C.ar    1  UNL1        0.1442
      9 F         138.7438  137.3363  163.3857 F       1  UNL1       -0.2042
     10 C         139.9492  138.7298  165.2175 C.ar    1  UNL1        0.1032
     11 C         138.6333  138.9814  165.8920 C.3     1  UNL1        0.4208
     12 F         137.3174  139.2330  166.5666 F       1  UNL1       -0.1658
     13 F         138.6495  140.3968  165.3957 F       1  UNL1       -0.1658
     14 F         138.6171  137.5660  166.3883 F       1  UNL1       -0.1658
     15 C         141.4357  142.4069  168.2560 C.3     1  UNL1        0.0927
     16 C         140.2681  143.2244  168.7233 C.3     1  UNL1        0.0383
     17 C         140.6492  143.8791  170.0180 C.3     1  UNL1        0.0704
     18 N         142.0524  143.4662  170.3508 N.3     1  UNL1       -0.2960
     19 C         142.5385  142.5563  169.2618 C.3     1  UNL1        0.0887
     20 H         142.0658  142.9745  171.2444 H       1  UNL1        0.1233
     21 C         141.8825  142.2229  165.7032 C.3     1  UNL1        0.0936
     22 C         140.7512  142.0691  163.3694 C.3     1  UNL1        0.0018
     23 C         140.8244  142.6737  164.7402 C.3     1  UNL1        0.0199
     24 C         139.8395  143.7289  165.1481 C.3     1  UNL1        0.0018
@<TRIPOS>BOND
     1    22    23    1
     2    23    24    1
     3    23    21    1
     4    21     1    1
     5     1     2   am
     6     2     3    2
     7     2     4    1
     8     4     5   ar
     9     5     6   ar
    10     6     7   ar
    11     7     8   ar
    12     8     9    1
    13     8    10   ar
    14    10    11    1
    15    11    12    1
    16    11    13    1
    17    11    14    1
    18    15     1    1
    19    15    16    1
    20    16    17    1
    21    17    18    1
    22    18    19    1
    23    10     4   ar
    24    19    15    1
    25    18    20    1
