@<TRIPOS>MOLECULE
*****
 41 45 0 0 0
SMALL
GASTEIGER

@<TRIPOS>ATOM
      1 C         140.9482  138.8358  160.9760 C.ar    1  UNL1        0.0002
      2 C         139.4484  138.8623  160.9891 C.ar    1  UNL1        0.0000
      3 C         138.7212  139.6378  162.0472 C.ar    1  UNL1        0.0000
      4 C         139.4936  140.3867  163.0924 C.ar    1  UNL1        0.0000
      5 C         140.9933  140.3602  163.0794 C.ar    1  UNL1        0.0014
      6 C         141.7206  139.5847  162.0212 C.ar    1  UNL1        0.0000
      7 C         141.7658  141.1091  164.1246 C.ar    1  UNL1        0.0174
      8 C         141.8386  140.5801  165.5263 C.ar    1  UNL1       -0.0012
      9 C         142.6110  141.3290  166.5715 C.ar    1  UNL1       -0.0025
     10 C         143.3107  142.6070  166.2150 C.ar    1  UNL1       -0.0012
     11 C         143.2379  143.1362  164.8132 C.ar    1  UNL1        0.0174
     12 C         143.9375  144.4142  164.4567 C.ar    1  UNL1        0.0031
     13 C         143.8647  144.9432  163.0551 C.ar    1  UNL1        0.0207
     14 C         143.0923  144.1943  162.0099 C.ar    1  UNL1        0.0988
     15 N         142.3926  142.9163  162.3664 N.ar    1  UNL1       -0.2438
     16 C         142.4654  142.3872  163.7680 C.ar    1  UNL1        0.0812
     17 C         142.6838  140.7999  167.9732 C.3     1  UNL1        0.1294
     18 C         142.7339  142.2033  168.5003 C.3     1  UNL1        0.0281
     19 C         142.6337  139.3965  167.4461 C.3     1  UNL1        0.0281
     20 S         142.7566  140.2708  169.3749 S.O2    1  UNL1       -0.0079
     21 C         142.8293  139.7418  170.7766 C.3     1  UNL1        0.1763
     22 O         142.5266  141.6536  169.9087 O.2     1  UNL1       -0.1727
     23 O         142.9865  138.8881  168.8410 O.2     1  UNL1       -0.1727
     24 C         142.1184  138.7438  158.6582 C.2     1  UNL1        0.0561
     25 C         141.6754  138.0603  159.9179 C.2     1  UNL1        0.0047
     26 C         143.7236  134.8048  155.5296 C.3     1  UNL1        0.0773
     27 C         143.5835  136.1577  156.1620 C.ar    1  UNL1        0.1812
     28 N         144.3460  137.3921  155.7813 N.ar    1  UNL1       -0.0602
     29 O         143.8899  138.5112  156.6702 O.2     1  UNL1       -0.3328
     30 C         142.8456  137.9683  157.6001 C.ar    1  UNL1        0.2597
     31 N         142.6562  136.5138  157.2860 N.ar    1  UNL1       -0.1911
     32 C         141.8341  140.2027  158.4568 C.ar    1  UNL1        0.0047
     33 C         142.8690  141.2258  158.8206 C.ar    1  UNL1        0.0015
     34 C         142.5846  142.6848  158.6191 C.ar    1  UNL1        0.0183
     35 C         141.2654  143.1207  158.0538 C.ar    1  UNL1        0.1057
     36 C         140.2305  142.0977  157.6900 C.ar    1  UNL1        0.0183
     37 C         140.5148  140.6387  157.8914 C.ar    1  UNL1        0.0015
     38 S         140.9811  144.5797  157.8523 S.O2    1  UNL1        0.0104
     39 C         140.6968  146.0386  157.6509 C.3     1  UNL1        0.1816
     40 O         139.6002  144.2443  157.3722 O.2     1  UNL1       -0.1686
     41 O         142.3619  144.9151  158.3325 O.2     1  UNL1       -0.1686
@<TRIPOS>BOND
     1    26    27    1
     2    27    28   ar
     3    28    29   ar
     4    29    30   ar
     5    30    24    1
     6    24    25    2
     7    25     1    1
     8     1     2   ar
     9     2     3   ar
    10     3     4   ar
    11     4     5   ar
    12     5     7    1
    13     7     8   ar
    14     8     9   ar
    15     9    17    1
    16    17    18    1
    17    17    19    1
    18    17    20    1
    19    20    21    1
    20    20    22    2
    21    20    23    2
    22     9    10   ar
    23    10    11   ar
    24    11    12   ar
    25    12    13   ar
    26    13    14   ar
    27    14    15   ar
    28    15    16   ar
    29     5     6   ar
    30    24    32    1
    31    32    33   ar
    32    33    34   ar
    33    34    35   ar
    34    35    38    1
    35    38    39    1
    36    38    40    2
    37    38    41    2
    38    35    36   ar
    39    36    37   ar
    40    30    31   ar
    41    31    27   ar
    42     6     1   ar
    43    37    32   ar
    44    16     7   ar
    45    16    11   ar
@<TRIPOS>MOLECULE
*****
 41 45 0 0 0
SMALL
GASTEIGER

@<TRIPOS>ATOM
      1 C         143.9582  141.0234  162.0863 C.ar    1  UNL1        0.0002
      2 C         145.3749  141.3394  162.4651 C.ar    1  UNL1        0.0000
      3 C         145.6658  142.0512  163.7530 C.ar    1  UNL1        0.0000
      4 C         144.5403  142.4471  164.6621 C.ar    1  UNL1        0.0000
      5 C         143.1237  142.1311  164.2833 C.ar    1  UNL1        0.0014
      6 C         142.8327  141.4193  162.9954 C.ar    1  UNL1        0.0000
      7 C         141.9982  142.5270  165.1924 C.ar    1  UNL1        0.0174
      8 C         142.0126  142.1047  166.6316 C.ar    1  UNL1       -0.0012
      9 C         140.8870  142.5005  167.5407 C.ar    1  UNL1       -0.0025
     10 C         139.7471  143.3187  167.0105 C.ar    1  UNL1       -0.0012
     11 C         139.7326  143.7410  165.5712 C.ar    1  UNL1        0.0174
     12 C         138.5927  144.5591  165.0411 C.ar    1  UNL1        0.0031
     13 C         138.5783  144.9814  163.6019 C.ar    1  UNL1        0.0207
     14 C         139.7038  144.5856  162.6928 C.ar    1  UNL1        0.0988
     15 N         140.8438  143.7674  163.2229 N.ar    1  UNL1       -0.2438
     16 C         140.8582  143.3452  164.6622 C.ar    1  UNL1        0.0812
     17 C         140.9015  142.0782  168.9800 C.3     1  UNL1        0.1294
     18 C         140.5134  143.4674  169.3915 C.3     1  UNL1        0.0281
     19 C         141.2896  140.6890  168.5685 C.3     1  UNL1        0.0281
     20 S         140.9159  141.6559  170.4192 S.O2    1  UNL1       -0.0079
     21 C         140.9303  141.2337  171.8584 C.3     1  UNL1        0.1763
     22 O         142.4128  141.5685  170.3785 O.2     1  UNL1       -0.1727
     23 O         139.4191  141.7434  170.4599 O.2     1  UNL1       -0.1727
     24 C         142.4663  139.4195  160.6893 C.2     1  UNL1        0.0561
     25 C         143.6672  140.3116  160.7985 C.2     1  UNL1        0.0047
     26 C         139.9146  137.4296  156.5169 C.3     1  UNL1        0.0773
     27 C         141.0023  137.7930  157.4836 C.ar    1  UNL1        0.1812
     28 N         142.4525  137.4315  157.3556 N.ar    1  UNL1       -0.0602
     29 O         143.1775  137.9968  158.5410 O.2     1  UNL1       -0.3328
     30 C         142.1753  138.7077  159.4015 C.ar    1  UNL1        0.2597
     31 N         140.8310  138.5817  158.7479 N.ar    1  UNL1       -0.1911
     32 C         141.5564  139.2392  161.8681 C.ar    1  UNL1        0.0047
     33 C         141.8553  138.1846  162.8920 C.ar    1  UNL1        0.0015
     34 C         140.9453  138.0043  164.0708 C.ar    1  UNL1        0.0183
     35 C         139.7364  138.8786  164.2256 C.ar    1  UNL1        0.1057
     36 C         139.4374  139.9333  163.2017 C.ar    1  UNL1        0.0183
     37 C         140.3474  140.1136  162.0230 C.ar    1  UNL1        0.0015
     38 S         138.8264  138.6984  165.4044 S.O2    1  UNL1        0.0104
     39 C         137.9164  138.5180  166.5831 C.3     1  UNL1        0.1816
     40 O         138.8949  140.1707  165.6825 O.2     1  UNL1       -0.1686
     41 O         138.7579  137.2260  165.1263 O.2     1  UNL1       -0.1686
@<TRIPOS>BOND
     1    26    27    1
     2    27    28   ar
     3    28    29   ar
     4    29    30   ar
     5    30    24    1
     6    24    25    2
     7    25     1    1
     8     1     2   ar
     9     2     3   ar
    10     3     4   ar
    11     4     5   ar
    12     5     7    1
    13     7     8   ar
    14     8     9   ar
    15     9    17    1
    16    17    18    1
    17    17    19    1
    18    17    20    1
    19    20    21    1
    20    20    22    2
    21    20    23    2
    22     9    10   ar
    23    10    11   ar
    24    11    12   ar
    25    12    13   ar
    26    13    14   ar
    27    14    15   ar
    28    15    16   ar
    29     5     6   ar
    30    24    32    1
    31    32    33   ar
    32    33    34   ar
    33    34    35   ar
    34    35    38    1
    35    38    39    1
    36    38    40    2
    37    38    41    2
    38    35    36   ar
    39    36    37   ar
    40    30    31   ar
    41    31    27   ar
    42     6     1   ar
    43    37    32   ar
    44    16     7   ar
    45    16    11   ar
@<TRIPOS>MOLECULE
*****
 41 45 0 0 0
SMALL
GASTEIGER

@<TRIPOS>ATOM
      1 C         144.1054  141.9500  161.8508 C.ar    1  UNL1        0.0002
      2 C         145.4818  141.8611  162.4405 C.ar    1  UNL1        0.0000
      3 C         145.6667  141.3547  163.8403 C.ar    1  UNL1        0.0000
      4 C         144.4753  140.9372  164.6503 C.ar    1  UNL1        0.0000
      5 C         143.0989  141.0260  164.0606 C.ar    1  UNL1        0.0014
      6 C         142.9140  141.5324  162.6608 C.ar    1  UNL1        0.0000
      7 C         141.9075  140.6084  164.8707 C.ar    1  UNL1        0.0174
      8 C         141.6443  141.2476  166.2019 C.ar    1  UNL1       -0.0012
      9 C         140.4529  140.8300  167.0119 C.ar    1  UNL1       -0.0025
     10 C         139.5247  139.7732  166.4908 C.ar    1  UNL1       -0.0012
     11 C         139.7879  139.1340  165.1595 C.ar    1  UNL1        0.0174
     12 C         138.8597  138.0772  164.6384 C.ar    1  UNL1        0.0031
     13 C         139.1229  137.4380  163.3072 C.ar    1  UNL1        0.0207
     14 C         140.3143  137.8556  162.4972 C.ar    1  UNL1        0.0988
     15 N         141.2425  138.9124  163.0183 N.ar    1  UNL1       -0.2438
     16 C         140.9793  139.5516  164.3495 C.ar    1  UNL1        0.0812
     17 C         140.1897  141.4693  168.3432 C.3     1  UNL1        0.1294
     18 C         140.8471  142.7308  167.8673 C.3     1  UNL1        0.0281
     19 C         139.5324  140.2078  168.8190 C.3     1  UNL1        0.0281
     20 S         139.9266  142.1085  169.6743 S.O2    1  UNL1       -0.0079
     21 C         139.6635  142.7478  171.0055 C.3     1  UNL1        0.1763
     22 O         139.1977  140.8764  170.1220 O.2     1  UNL1       -0.1727
     23 O         140.6555  143.3407  169.2267 O.2     1  UNL1       -0.1727
     24 C         142.7022  143.2572  160.0980 C.2     1  UNL1        0.0561
     25 C         143.9204  142.4564  160.4510 C.2     1  UNL1        0.0047
     26 C         141.0739  146.1099  155.9638 C.3     1  UNL1        0.0773
     27 C         141.7688  145.0749  156.7979 C.ar    1  UNL1        0.1812
     28 N         142.6966  144.0110  156.2904 N.ar    1  UNL1       -0.0602
     29 O         143.1592  143.2006  157.4649 O.2     1  UNL1       -0.3328
     30 C         142.5173  143.7636  158.6982 C.ar    1  UNL1        0.2597
     31 N         141.6580  144.9220  158.2860 N.ar    1  UNL1       -0.1911
     32 C         141.6690  143.5517  161.1447 C.ar    1  UNL1        0.0047
     33 C         140.3929  142.7640  161.1814 C.ar    1  UNL1        0.0015
     34 C         139.3596  143.0585  162.2281 C.ar    1  UNL1        0.0183
     35 C         139.6024  144.1406  163.2381 C.ar    1  UNL1        0.1057
     36 C         140.8784  144.9282  163.2014 C.ar    1  UNL1        0.0183
     37 C         141.9117  144.6338  162.1547 C.ar    1  UNL1        0.0015
     38 S         138.5691  144.4351  164.2849 S.O2    1  UNL1        0.0104
     39 C         137.5359  144.7296  165.3316 C.3     1  UNL1        0.1816
     40 O         137.4818  144.1420  163.2941 O.2     1  UNL1       -0.1686
     41 O         139.6564  144.7282  165.2757 O.2     1  UNL1       -0.1686
@<TRIPOS>BOND
     1    26    27    1
     2    27    28   ar
     3    28    29   ar
     4    29    30   ar
     5    30    24    1
     6    24    25    2
     7    25     1    1
     8     1     2   ar
     9     2     3   ar
    10     3     4   ar
    11     4     5   ar
    12     5     7    1
    13     7     8   ar
    14     8     9   ar
    15     9    17    1
    16    17    18    1
    17    17    19    1
    18    17    20    1
    19    20    21    1
    20    20    22    2
    21    20    23    2
    22     9    10   ar
    23    10    11   ar
    24    11    12   ar
    25    12    13   ar
    26    13    14   ar
    27    14    15   ar
    28    15    16   ar
    29     5     6   ar
    30    24    32    1
    31    32    33   ar
    32    33    34   ar
    33    34    35   ar
    34    35    38    1
    35    38    39    1
    36    38    40    2
    37    38    41    2
    38    35    36   ar
    39    36    37   ar
    40    30    31   ar
    41    31    27   ar
    42     6     1   ar
    43    37    32   ar
    44    16     7   ar
    45    16    11   ar
@<TRIPOS>MOLECULE
*****
 41 45 0 0 0
SMALL
GASTEIGER

@<TRIPOS>ATOM
      1 C         139.7283  138.6692  164.4098 C.ar    1  UNL1        0.0002
      2 C         138.6275  137.9130  163.7267 C.ar    1  UNL1        0.0000
      3 C         138.6499  137.7382  162.2371 C.ar    1  UNL1        0.0000
      4 C         139.7730  138.3195  161.4305 C.ar    1  UNL1        0.0000
      5 C         140.8738  139.0756  162.1135 C.ar    1  UNL1        0.0014
      6 C         140.8514  139.2505  163.6032 C.ar    1  UNL1        0.0000
      7 C         141.9969  139.6569  161.3069 C.ar    1  UNL1        0.0174
      8 C         142.0995  139.3592  159.8404 C.ar    1  UNL1       -0.0012
      9 C         143.2226  139.9405  159.0338 C.ar    1  UNL1       -0.0025
     10 C         144.2433  140.8196  159.6937 C.ar    1  UNL1       -0.0012
     11 C         144.1408  141.1173  161.1604 C.ar    1  UNL1        0.0174
     12 C         145.1614  141.9963  161.8203 C.ar    1  UNL1        0.0031
     13 C         145.0589  142.2941  163.2869 C.ar    1  UNL1        0.0207
     14 C         143.9357  141.7127  164.0935 C.ar    1  UNL1        0.0988
     15 N         142.9151  140.8337  163.4335 N.ar    1  UNL1       -0.2438
     16 C         143.0176  140.5360  161.9670 C.ar    1  UNL1        0.0812
     17 C         143.3251  139.6428  157.5672 C.3     1  UNL1        0.1294
     18 C         144.0060  140.9611  157.3471 C.3     1  UNL1        0.0281
     19 C         142.6443  138.3245  157.7872 C.3     1  UNL1        0.0281
     20 S         143.4276  139.3451  156.1006 S.O2    1  UNL1       -0.0079
     21 C         143.5302  139.0474  154.6341 C.3     1  UNL1        0.1763
     22 O         144.9240  139.3459  156.2051 O.2     1  UNL1       -0.1727
     23 O         141.9313  139.3443  155.9962 O.2     1  UNL1       -0.1727
     24 C         139.6356  140.2201  166.4920 C.2     1  UNL1        0.0561
     25 C         139.7059  138.8440  165.8993 C.2     1  UNL1        0.0047
     26 C         140.7642  141.9016  171.3684 C.3     1  UNL1        0.0773
     27 C         140.1320  141.1679  170.2231 C.ar    1  UNL1        0.1812
     28 N         139.0256  140.1601  170.3248 N.ar    1  UNL1       -0.0602
     29 O         138.7049  139.6824  168.9394 O.2     1  UNL1       -0.3328
     30 C         139.6132  140.3949  167.9816 C.ar    1  UNL1        0.2597
     31 N         140.4952  141.3130  168.7750 N.ar    1  UNL1       -0.1911
     32 C         139.5877  141.4215  165.5951 C.ar    1  UNL1        0.0047
     33 C         138.3834  141.6681  164.7355 C.ar    1  UNL1        0.0015
     34 C         138.3356  142.8695  163.8386 C.ar    1  UNL1        0.0183
     35 C         139.4919  143.8242  163.8013 C.ar    1  UNL1        0.1057
     36 C         140.6961  143.5776  164.6610 C.ar    1  UNL1        0.0183
     37 C         140.7440  142.3762  165.5579 C.ar    1  UNL1        0.0015
     38 S         139.4440  145.0256  162.9044 S.O2    1  UNL1        0.0104
     39 C         139.3962  146.2270  162.0075 C.3     1  UNL1        0.1816
     40 O         138.0036  144.7399  162.5985 O.2     1  UNL1       -0.1686
     41 O         140.8844  145.3113  163.2103 O.2     1  UNL1       -0.1686
@<TRIPOS>BOND
     1    26    27    1
     2    27    28   ar
     3    28    29   ar
     4    29    30   ar
     5    30    24    1
     6    24    25    2
     7    25     1    1
     8     1     2   ar
     9     2     3   ar
    10     3     4   ar
    11     4     5   ar
    12     5     7    1
    13     7     8   ar
    14     8     9   ar
    15     9    17    1
    16    17    18    1
    17    17    19    1
    18    17    20    1
    19    20    21    1
    20    20    22    2
    21    20    23    2
    22     9    10   ar
    23    10    11   ar
    24    11    12   ar
    25    12    13   ar
    26    13    14   ar
    27    14    15   ar
    28    15    16   ar
    29     5     6   ar
    30    24    32    1
    31    32    33   ar
    32    33    34   ar
    33    34    35   ar
    34    35    38    1
    35    38    39    1
    36    38    40    2
    37    38    41    2
    38    35    36   ar
    39    36    37   ar
    40    30    31   ar
    41    31    27   ar
    42     6     1   ar
    43    37    32   ar
    44    16     7   ar
    45    16    11   ar
@<TRIPOS>MOLECULE
*****
 41 45 0 0 0
SMALL
GASTEIGER

@<TRIPOS>ATOM
      1 C         142.1598  143.4456  161.2256 C.ar    1  UNL1        0.0002
      2 C         141.3448  144.6954  161.0714 C.ar    1  UNL1        0.0000
      3 C         140.1665  144.9378  161.9675 C.ar    1  UNL1        0.0000
      4 C         139.8033  143.9303  163.0178 C.ar    1  UNL1        0.0000
      5 C         140.6183  142.6806  163.1721 C.ar    1  UNL1        0.0014
      6 C         141.7966  142.4382  162.2760 C.ar    1  UNL1        0.0000
      7 C         140.2551  141.6732  164.2224 C.ar    1  UNL1        0.0174
      8 C         140.3969  142.0196  165.6749 C.ar    1  UNL1       -0.0012
      9 C         140.0337  141.0122  166.7252 C.ar    1  UNL1       -0.0025
     10 C         139.5286  139.6583  166.3230 C.ar    1  UNL1       -0.0012
     11 C         139.3867  139.3118  164.8704 C.ar    1  UNL1        0.0174
     12 C         138.8817  137.9579  164.4683 C.ar    1  UNL1        0.0031
     13 C         138.7398  137.6114  163.0158 C.ar    1  UNL1        0.0207
     14 C         139.1031  138.6188  161.9655 C.ar    1  UNL1        0.0988
     15 N         139.6081  139.9727  162.3676 N.ar    1  UNL1       -0.2438
     16 C         139.7500  140.3192  163.8201 C.ar    1  UNL1        0.0812
     17 C         140.1755  141.3587  168.1778 C.3     1  UNL1        0.1294
     18 C         140.7936  142.6733  167.8037 C.3     1  UNL1        0.0281
     19 C         139.5575  140.0442  168.5518 C.3     1  UNL1        0.0281
     20 S         140.3174  141.7053  169.6302 S.O2    1  UNL1       -0.0079
     21 C         140.4593  142.0519  171.0827 C.3     1  UNL1        0.1763
     22 O         140.3505  143.1632  169.2791 O.2     1  UNL1       -0.1727
     23 O         140.2843  140.2474  169.9813 O.2     1  UNL1       -0.1727
     24 C         143.1328  142.6265  158.9602 C.2     1  UNL1        0.0561
     25 C         143.3380  143.2033  160.3296 C.2     1  UNL1        0.0047
     26 C         146.1231  140.9836  154.9304 C.3     1  UNL1        0.0773
     27 C         145.6855  141.6290  156.2117 C.ar    1  UNL1        0.1812
     28 N         146.5628  142.3935  157.1583 N.ar    1  UNL1       -0.0602
     29 O         145.7132  142.8602  158.3032 O.2     1  UNL1       -0.3328
     30 C         144.3110  142.3842  158.0641 C.ar    1  UNL1        0.2597
     31 N         144.2939  141.6233  156.7714 N.ar    1  UNL1       -0.1911
     32 C         141.7493  142.2921  158.4869 C.ar    1  UNL1        0.0047
     33 C         140.9882  143.2711  157.6429 C.ar    1  UNL1        0.0015
     34 C         139.6046  142.9367  157.1696 C.ar    1  UNL1        0.0183
     35 C         138.9822  141.6233  157.5403 C.ar    1  UNL1        0.1057
     36 C         139.7433  140.6442  158.3842 C.ar    1  UNL1        0.0183
     37 C         141.1268  140.9786  158.8575 C.ar    1  UNL1        0.0015
     38 S         137.5986  141.2888  157.0669 S.O2    1  UNL1        0.0104
     39 C         136.2152  140.9543  156.5937 C.3     1  UNL1        0.1816
     40 O         137.2419  142.7457  157.0802 O.2     1  UNL1       -0.1686
     41 O         137.9554  139.8319  157.0537 O.2     1  UNL1       -0.1686
@<TRIPOS>BOND
     1    26    27    1
     2    27    28   ar
     3    28    29   ar
     4    29    30   ar
     5    30    24    1
     6    24    25    2
     7    25     1    1
     8     1     2   ar
     9     2     3   ar
    10     3     4   ar
    11     4     5   ar
    12     5     7    1
    13     7     8   ar
    14     8     9   ar
    15     9    17    1
    16    17    18    1
    17    17    19    1
    18    17    20    1
    19    20    21    1
    20    20    22    2
    21    20    23    2
    22     9    10   ar
    23    10    11   ar
    24    11    12   ar
    25    12    13   ar
    26    13    14   ar
    27    14    15   ar
    28    15    16   ar
    29     5     6   ar
    30    24    32    1
    31    32    33   ar
    32    33    34   ar
    33    34    35   ar
    34    35    38    1
    35    38    39    1
    36    38    40    2
    37    38    41    2
    38    35    36   ar
    39    36    37   ar
    40    30    31   ar
    41    31    27   ar
    42     6     1   ar
    43    37    32   ar
    44    16     7   ar
    45    16    11   ar
@<TRIPOS>MOLECULE
*****
 41 45 0 0 0
SMALL
GASTEIGER

@<TRIPOS>ATOM
      1 C         143.6447  141.0653  161.2303 C.ar    1  UNL1        0.0002
      2 C         144.7851  142.0251  161.0618 C.ar    1  UNL1        0.0000
      3 C         144.9169  143.2021  161.9822 C.ar    1  UNL1        0.0000
      4 C         143.9084  143.4195  163.0710 C.ar    1  UNL1        0.0000
      5 C         142.7680  142.4597  163.2396 C.ar    1  UNL1        0.0014
      6 C         142.6361  141.2826  162.3192 C.ar    1  UNL1        0.0000
      7 C         141.7595  142.6771  164.3284 C.ar    1  UNL1        0.0174
      8 C         142.1017  142.3319  165.7475 C.ar    1  UNL1       -0.0012
      9 C         141.0932  142.5493  166.8363 C.ar    1  UNL1       -0.0025
     10 C         139.7425  143.1118  166.5062 C.ar    1  UNL1       -0.0012
     11 C         139.4002  143.4570  165.0871 C.ar    1  UNL1        0.0174
     12 C         138.0494  144.0195  164.7569 C.ar    1  UNL1        0.0031
     13 C         137.7072  144.3646  163.3379 C.ar    1  UNL1        0.0207
     14 C         138.7157  144.1473  162.2490 C.ar    1  UNL1        0.0988
     15 N         140.0665  143.5848  162.5792 N.ar    1  UNL1       -0.2438
     16 C         140.4087  143.2396  163.9982 C.ar    1  UNL1        0.0812
     17 C         141.4355  142.2041  168.2554 C.3     1  UNL1        0.1294
     18 C         140.3866  143.1602  168.7409 C.3     1  UNL1        0.0281
     19 C         142.4844  141.2481  167.7700 C.3     1  UNL1        0.0281
     20 S         141.7777  141.8590  169.6745 S.O2    1  UNL1       -0.0079
     21 C         142.1199  141.5139  171.0935 C.3     1  UNL1        0.1763
     22 O         140.5642  142.6026  170.1480 O.2     1  UNL1       -0.1727
     23 O         142.9912  141.1153  169.2009 O.2     1  UNL1       -0.1727
     24 C         142.7725  140.0294  159.0130 C.2     1  UNL1        0.0561
     25 C         143.5128  139.8882  160.3099 C.2     1  UNL1        0.0047
     26 C         143.8444  136.3503  155.3805 C.3     1  UNL1        0.0773
     27 C         143.1334  137.1612  156.4229 C.ar    1  UNL1        0.1812
     28 N         141.7422  136.9207  156.9297 N.ar    1  UNL1       -0.0602
     29 O         141.4377  137.9660  157.9617 O.2     1  UNL1       -0.3328
     30 C         142.6406  138.8524  158.0927 C.ar    1  UNL1        0.2597
     31 N         143.6887  138.3550  157.1416 N.ar    1  UNL1       -0.1911
     32 C         142.1640  141.3477  158.6365 C.ar    1  UNL1        0.0047
     33 C         142.9451  142.3253  157.8093 C.ar    1  UNL1        0.0015
     34 C         142.3366  143.6437  157.4327 C.ar    1  UNL1        0.0183
     35 C         140.9471  143.9844  157.8833 C.ar    1  UNL1        0.1057
     36 C         140.1660  143.0068  158.7105 C.ar    1  UNL1        0.0183
     37 C         140.7745  141.6885  159.0871 C.ar    1  UNL1        0.0015
     38 S         140.3385  145.3027  157.5068 S.O2    1  UNL1        0.0104
     39 C         139.7301  146.6210  157.1302 C.3     1  UNL1        0.1816
     40 O         139.8981  145.5049  158.9263 O.2     1  UNL1       -0.1686
     41 O         140.7790  145.1005  156.0873 O.2     1  UNL1       -0.1686
@<TRIPOS>BOND
     1    26    27    1
     2    27    28   ar
     3    28    29   ar
     4    29    30   ar
     5    30    24    1
     6    24    25    2
     7    25     1    1
     8     1     2   ar
     9     2     3   ar
    10     3     4   ar
    11     4     5   ar
    12     5     7    1
    13     7     8   ar
    14     8     9   ar
    15     9    17    1
    16    17    18    1
    17    17    19    1
    18    17    20    1
    19    20    21    1
    20    20    22    2
    21    20    23    2
    22     9    10   ar
    23    10    11   ar
    24    11    12   ar
    25    12    13   ar
    26    13    14   ar
    27    14    15   ar
    28    15    16   ar
    29     5     6   ar
    30    24    32    1
    31    32    33   ar
    32    33    34   ar
    33    34    35   ar
    34    35    38    1
    35    38    39    1
    36    38    40    2
    37    38    41    2
    38    35    36   ar
    39    36    37   ar
    40    30    31   ar
    41    31    27   ar
    42     6     1   ar
    43    37    32   ar
    44    16     7   ar
    45    16    11   ar
@<TRIPOS>MOLECULE
*****
 41 45 0 0 0
SMALL
GASTEIGER

@<TRIPOS>ATOM
      1 C         141.6181  143.4859  160.9912 C.ar    1  UNL1        0.0002
      2 C         141.1446  144.9006  161.1477 C.ar    1  UNL1        0.0000
      3 C         140.3243  145.2892  162.3419 C.ar    1  UNL1        0.0000
      4 C         139.9776  144.2632  163.3797 C.ar    1  UNL1        0.0000
      5 C         140.4512  142.8485  163.2233 C.ar    1  UNL1        0.0014
      6 C         141.2714  142.4598  162.0291 C.ar    1  UNL1        0.0000
      7 C         140.1044  141.8225  164.2611 C.ar    1  UNL1        0.0174
      8 C         140.2787  142.1396  165.7168 C.ar    1  UNL1       -0.0012
      9 C         139.9319  141.1136  166.7546 C.ar    1  UNL1       -0.0025
     10 C         139.4110  139.7705  166.3368 C.ar    1  UNL1       -0.0012
     11 C         139.2368  139.4533  164.8810 C.ar    1  UNL1        0.0174
     12 C         138.7159  138.1102  164.4631 C.ar    1  UNL1        0.0031
     13 C         138.5417  137.7931  163.0075 C.ar    1  UNL1        0.0207
     14 C         138.8884  138.8191  161.9696 C.ar    1  UNL1        0.0988
     15 N         139.4093  140.1623  162.3875 N.ar    1  UNL1       -0.2438
     16 C         139.5835  140.4793  163.8432 C.ar    1  UNL1        0.0812
     17 C         140.1062  141.4307  168.2104 C.3     1  UNL1        0.1294
     18 C         140.6531  142.7804  167.8509 C.3     1  UNL1        0.0281
     19 C         139.5593  140.0811  168.5699 C.3     1  UNL1        0.0281
     20 S         140.2804  141.7479  169.6660 S.O2    1  UNL1       -0.0079
     21 C         140.4547  142.0651  171.1217 C.3     1  UNL1        0.1763
     22 O         140.4058  143.2051  169.3335 O.2     1  UNL1       -0.1727
     23 O         140.1550  140.2906  169.9986 O.2     1  UNL1       -0.1727
     24 C         143.3924  141.9432  159.8858 C.2     1  UNL1        0.0561
     25 C         142.4384  143.0972  159.7971 C.2     1  UNL1        0.0047
     26 C         146.7645  142.1477  155.8279 C.3     1  UNL1        0.0773
     27 C         145.7627  141.6486  156.8263 C.ar    1  UNL1        0.1812
     28 N         145.1871  140.2645  156.8814 N.ar    1  UNL1       -0.0602
     29 O         144.2291  140.2064  158.0343 O.2     1  UNL1       -0.3328
     30 C         144.2126  141.5545  158.6916 C.ar    1  UNL1        0.2597
     31 N         145.1604  142.4459  157.9451 N.ar    1  UNL1       -0.1911
     32 C         143.5262  141.1777  161.1688 C.ar    1  UNL1        0.0047
     33 C         144.4401  141.6772  162.2484 C.ar    1  UNL1        0.0015
     34 C         144.5739  140.9117  163.5314 C.ar    1  UNL1        0.0183
     35 C         143.7939  139.6467  163.7349 C.ar    1  UNL1        0.1057
     36 C         142.8801  139.1472  162.6553 C.ar    1  UNL1        0.0183
     37 C         142.7462  139.9127  161.3723 C.ar    1  UNL1        0.0015
     38 S         143.9277  138.8812  165.0179 S.O2    1  UNL1        0.0104
     39 C         144.0615  138.1157  166.3009 C.3     1  UNL1        0.1816
     40 O         142.4531  138.6068  165.0081 O.2     1  UNL1       -0.1686
     41 O         145.4023  139.1556  165.0278 O.2     1  UNL1       -0.1686
@<TRIPOS>BOND
     1    26    27    1
     2    27    28   ar
     3    28    29   ar
     4    29    30   ar
     5    30    24    1
     6    24    25    2
     7    25     1    1
     8     1     2   ar
     9     2     3   ar
    10     3     4   ar
    11     4     5   ar
    12     5     7    1
    13     7     8   ar
    14     8     9   ar
    15     9    17    1
    16    17    18    1
    17    17    19    1
    18    17    20    1
    19    20    21    1
    20    20    22    2
    21    20    23    2
    22     9    10   ar
    23    10    11   ar
    24    11    12   ar
    25    12    13   ar
    26    13    14   ar
    27    14    15   ar
    28    15    16   ar
    29     5     6   ar
    30    24    32    1
    31    32    33   ar
    32    33    34   ar
    33    34    35   ar
    34    35    38    1
    35    38    39    1
    36    38    40    2
    37    38    41    2
    38    35    36   ar
    39    36    37   ar
    40    30    31   ar
    41    31    27   ar
    42     6     1   ar
    43    37    32   ar
    44    16     7   ar
    45    16    11   ar
@<TRIPOS>MOLECULE
*****
 41 45 0 0 0
SMALL
GASTEIGER

@<TRIPOS>ATOM
      1 C         143.4146  141.1216  160.3767 C.ar    1  UNL1        0.0002
      2 C         144.5265  142.1265  160.3135 C.ar    1  UNL1        0.0000
      3 C         144.7172  143.1055  161.4338 C.ar    1  UNL1        0.0000
      4 C         143.7962  143.0796  162.6174 C.ar    1  UNL1        0.0000
      5 C         142.6844  142.0747  162.6807 C.ar    1  UNL1        0.0014
      6 C         142.4936  141.0957  161.5604 C.ar    1  UNL1        0.0000
      7 C         141.7633  142.0488  163.8644 C.ar    1  UNL1        0.0174
      8 C         142.1581  141.3051  165.1057 C.ar    1  UNL1       -0.0012
      9 C         141.2370  141.2792  166.2894 C.ar    1  UNL1       -0.0025
     10 C         139.9212  141.9970  166.2316 C.ar    1  UNL1       -0.0012
     11 C         139.5263  142.7407  164.9902 C.ar    1  UNL1        0.0174
     12 C         138.2105  143.4584  164.9324 C.ar    1  UNL1        0.0031
     13 C         137.8158  144.2021  163.6911 C.ar    1  UNL1        0.0207
     14 C         138.7368  144.2280  162.5074 C.ar    1  UNL1        0.0988
     15 N         140.0526  143.5103  162.5652 N.ar    1  UNL1       -0.2438
     16 C         140.4474  142.7666  163.8066 C.ar    1  UNL1        0.0812
     17 C         141.6318  140.5355  167.5308 C.3     1  UNL1        0.1294
     18 C         142.2618  139.4655  166.6893 C.3     1  UNL1        0.0281
     19 C         141.0019  141.6055  168.3723 C.3     1  UNL1        0.0281
     20 S         142.0267  139.7918  168.7721 S.O2    1  UNL1       -0.0079
     21 C         142.4215  139.0481  170.0135 C.3     1  UNL1        0.1763
     22 O         140.9646  140.5167  169.5443 O.2     1  UNL1       -0.1727
     23 O         143.0888  139.0668  168.0000 O.2     1  UNL1       -0.1727
     24 C         142.2649  139.0000  159.4139 C.2     1  UNL1        0.0561
     25 C         143.2239  140.1426  159.2564 C.2     1  UNL1        0.0047
     26 C         143.1718  135.2271  155.8329 C.3     1  UNL1        0.0773
     27 C         142.4911  136.2868  156.6475 C.ar    1  UNL1        0.1812
     28 N         141.0703  136.7421  156.4915 N.ar    1  UNL1       -0.0602
     29 O         140.8127  137.8140  157.5088 O.2     1  UNL1       -0.3328
     30 C         142.0742  138.0210  158.2936 C.ar    1  UNL1        0.2597
     31 N         143.1114  137.0771  157.7613 N.ar    1  UNL1       -0.1911
     32 C         141.4968  138.8363  160.6918 C.ar    1  UNL1        0.0047
     33 C         140.1517  139.4819  160.8463 C.ar    1  UNL1        0.0015
     34 C         139.3835  139.3181  162.1243 C.ar    1  UNL1        0.0183
     35 C         139.9605  138.5089  163.2477 C.ar    1  UNL1        0.1057
     36 C         141.3056  137.8633  163.0933 C.ar    1  UNL1        0.0183
     37 C         142.0737  138.0270  161.8154 C.ar    1  UNL1        0.0015
     38 S         139.1923  138.3451  164.5257 S.O2    1  UNL1        0.0104
     39 C         138.4242  138.1814  165.8037 C.3     1  UNL1        0.1816
     40 O         138.2898  139.4753  164.1282 O.2     1  UNL1       -0.1686
     41 O         140.0947  137.2149  164.9233 O.2     1  UNL1       -0.1686
@<TRIPOS>BOND
     1    26    27    1
     2    27    28   ar
     3    28    29   ar
     4    29    30   ar
     5    30    24    1
     6    24    25    2
     7    25     1    1
     8     1     2   ar
     9     2     3   ar
    10     3     4   ar
    11     4     5   ar
    12     5     7    1
    13     7     8   ar
    14     8     9   ar
    15     9    17    1
    16    17    18    1
    17    17    19    1
    18    17    20    1
    19    20    21    1
    20    20    22    2
    21    20    23    2
    22     9    10   ar
    23    10    11   ar
    24    11    12   ar
    25    12    13   ar
    26    13    14   ar
    27    14    15   ar
    28    15    16   ar
    29     5     6   ar
    30    24    32    1
    31    32    33   ar
    32    33    34   ar
    33    34    35   ar
    34    35    38    1
    35    38    39    1
    36    38    40    2
    37    38    41    2
    38    35    36   ar
    39    36    37   ar
    40    30    31   ar
    41    31    27   ar
    42     6     1   ar
    43    37    32   ar
    44    16     7   ar
    45    16    11   ar
@<TRIPOS>MOLECULE
*****
 41 45 0 0 0
SMALL
GASTEIGER

@<TRIPOS>ATOM
      1 C         142.5489  139.5174  160.8766 C.ar    1  UNL1        0.0002
      2 C         141.6855  138.3108  160.6551 C.ar    1  UNL1        0.0000
      3 C         140.5802  137.9925  161.6178 C.ar    1  UNL1        0.0000
      4 C         140.3381  138.8807  162.8021 C.ar    1  UNL1        0.0000
      5 C         141.2014  140.0872  163.0237 C.ar    1  UNL1        0.0014
      6 C         142.3068  140.4055  162.0609 C.ar    1  UNL1        0.0000
      7 C         140.9593  140.9753  164.2080 C.ar    1  UNL1        0.0174
      8 C         141.4824  140.5841  165.5582 C.ar    1  UNL1       -0.0012
      9 C         141.2403  141.4723  166.7425 C.ar    1  UNL1       -0.0025
     10 C         140.4751  142.7517  166.5765 C.ar    1  UNL1       -0.0012
     11 C         139.9519  143.1430  165.2262 C.ar    1  UNL1        0.0174
     12 C         139.1868  144.4224  165.0602 C.ar    1  UNL1        0.0031
     13 C         138.6637  144.8136  163.7100 C.ar    1  UNL1        0.0207
     14 C         138.9058  143.9254  162.5257 C.ar    1  UNL1        0.0988
     15 N         139.6709  142.6460  162.6917 N.ar    1  UNL1       -0.2438
     16 C         140.1940  142.2548  164.0419 C.ar    1  UNL1        0.0812
     17 C         141.7634  141.0810  168.0928 C.3     1  UNL1        0.1294
     18 C         140.5405  140.2438  168.3239 C.3     1  UNL1        0.0281
     19 C         142.9863  141.9183  167.8617 C.3     1  UNL1        0.0281
     20 S         142.2865  140.6897  169.4431 S.O2    1  UNL1       -0.0079
     21 C         142.8096  140.2984  170.7934 C.3     1  UNL1        0.1763
     22 O         142.9845  139.5115  168.8312 O.2     1  UNL1       -0.1727
     23 O         141.5885  141.8680  170.0549 O.2     1  UNL1       -0.1727
     24 C         143.3289  140.3202  158.5321 C.2     1  UNL1        0.0561
     25 C         143.6542  139.8357  159.9139 C.2     1  UNL1        0.0047
     26 C         147.2860  142.8048  156.0728 C.3     1  UNL1        0.0773
     27 C         146.2532  141.7806  156.4390 C.ar    1  UNL1        0.1812
     28 N         146.0174  140.4762  155.7368 N.ar    1  UNL1       -0.0602
     29 O         144.8932  139.7703  156.4355 O.2     1  UNL1       -0.3328
     30 C         144.4343  140.6385  157.5694 C.ar    1  UNL1        0.2597
     31 N         145.2748  141.8810  157.5715 N.ar    1  UNL1       -0.1911
     32 C         141.8983  140.4864  158.1130 C.ar    1  UNL1        0.0047
     33 C         141.2205  139.4115  157.3162 C.ar    1  UNL1        0.0015
     34 C         139.7898  139.5777  156.8971 C.ar    1  UNL1        0.0183
     35 C         139.0370  140.8189  157.2748 C.ar    1  UNL1        0.1057
     36 C         139.7149  141.8939  158.0716 C.ar    1  UNL1        0.0183
     37 C         141.1455  141.7277  158.4907 C.ar    1  UNL1        0.0015
     38 S         137.6064  140.9852  156.8557 S.O2    1  UNL1        0.0104
     39 C         136.1758  141.1515  156.4366 C.3     1  UNL1        0.1816
     40 O         137.6600  139.6637  156.1481 O.2     1  UNL1       -0.1686
     41 O         137.5527  142.3067  157.5632 O.2     1  UNL1       -0.1686
@<TRIPOS>BOND
     1    26    27    1
     2    27    28   ar
     3    28    29   ar
     4    29    30   ar
     5    30    24    1
     6    24    25    2
     7    25     1    1
     8     1     2   ar
     9     2     3   ar
    10     3     4   ar
    11     4     5   ar
    12     5     7    1
    13     7     8   ar
    14     8     9   ar
    15     9    17    1
    16    17    18    1
    17    17    19    1
    18    17    20    1
    19    20    21    1
    20    20    22    2
    21    20    23    2
    22     9    10   ar
    23    10    11   ar
    24    11    12   ar
    25    12    13   ar
    26    13    14   ar
    27    14    15   ar
    28    15    16   ar
    29     5     6   ar
    30    24    32    1
    31    32    33   ar
    32    33    34   ar
    33    34    35   ar
    34    35    38    1
    35    38    39    1
    36    38    40    2
    37    38    41    2
    38    35    36   ar
    39    36    37   ar
    40    30    31   ar
    41    31    27   ar
    42     6     1   ar
    43    37    32   ar
    44    16     7   ar
    45    16    11   ar
