@<TRIPOS>MOLECULE
*****
 31 35 0 0 0
SMALL
GASTEIGER

@<TRIPOS>ATOM
      1 N         139.2287  138.5279  164.5830 N.3     1  UNL1       -0.2725
      2 C         140.6360  138.6007  165.0968 C.3     1  UNL1        0.0738
      3 C         140.9143  139.2138  166.4373 C.3     1  UNL1        0.0376
      4 C         139.7852  139.7543  167.2637 C.3     1  UNL1        0.0841
      5 C         138.3778  139.6815  166.7498 C.3     1  UNL1        0.0376
      6 C         138.0996  139.0684  165.4094 C.3     1  UNL1        0.0738
      7 N         140.0634  140.3674  168.6041 N.am    1  UNL1       -0.2423
      8 C         139.1911  140.2624  169.8198 C.2     1  UNL1        0.3309
      9 O         137.8874  139.5258  169.9087 O.2     1  UNL1       -0.2501
     10 N         139.8513  141.0233  170.9312 N.am    1  UNL1       -0.1647
     11 C         141.1317  141.5986  170.4023 C.2     1  UNL1        0.0706
     12 C         142.1951  142.4392  171.0445 C.3     1  UNL1        0.0705
     13 C         143.3897  142.8745  170.2485 C.2     1  UNL1       -0.0199
     14 C         143.5208  142.4691  168.8102 C.2     1  UNL1       -0.0029
     15 C         142.4573  141.6284  168.1680 C.2     1  UNL1        0.0156
     16 C         141.2627  141.1932  168.9641 C.2     1  UNL1        0.0668
     17 C         138.9505  137.9148  163.2426 C.3     1  UNL1        0.0739
     18 C         138.1556  138.6732  162.2213 C.3     1  UNL1        0.0392
     19 C         138.7278  139.9088  161.5920 C.3     1  UNL1        0.0996
     20 O         141.5827  139.1534  161.0637 O.2     1  UNL1       -0.2745
     21 C         141.2660  140.2741  162.0091 C.2     1  UNL1        0.2297
     22 C         142.3768  141.0172  162.6904 C.3     1  UNL1        0.0903
     23 C         142.0602  142.1379  163.6357 C.3     1  UNL1        0.0373
     24 C         140.6327  142.5156  163.8999 C.ar    1  UNL1       -0.0058
     25 C         140.3161  143.6363  164.8453 C.ar    1  UNL1        0.0266
     26 C         138.8887  144.0140  165.1094 C.ar    1  UNL1        0.1399
     27 F         138.5720  145.1347  166.0548 F       1  UNL1       -0.2042
     28 C         137.7779  143.2709  164.4282 C.ar    1  UNL1        0.0309
     29 C         138.0945  142.1502  163.4828 C.ar    1  UNL1        0.0169
     30 C         139.5219  141.7726  163.2187 C.ar    1  UNL1        0.0500
     31 N         139.8386  140.6518  162.2733 N.am    1  UNL1       -0.2589
@<TRIPOS>BOND
     1    20    21    2
     2    21    22    1
     3    22    23    1
     4    23    24    1
     5    24    25   ar
     6    25    26   ar
     7    26    27    1
     8    26    28   ar
     9    28    29   ar
    10    29    30   ar
    11    30    31    1
    12    31    19    1
    13    19    18    1
    14    18    17    1
    15    17     1    1
    16     1     2    1
    17     2     3    1
    18     3     4    1
    19     4     7    1
    20     7     8   am
    21     8     9    2
    22     8    10    1
    23    10    11    2
    24    11    12    1
    25    12    13    1
    26    13    14    2
    27    14    15    1
    28    15    16    2
    29     4     5    1
    30     5     6    1
    31    31    21   am
    32     6     1    1
    33    30    24   ar
    34    16     7    1
    35    16    11    1
@<TRIPOS>MOLECULE
*****
 31 35 0 0 0
SMALL
GASTEIGER

@<TRIPOS>ATOM
      1 N         141.1654  138.6778  162.5557 N.3     1  UNL1       -0.2725
      2 C         141.5101  137.7736  163.7017 C.3     1  UNL1        0.0738
      3 C         141.2589  138.2204  165.1115 C.3     1  UNL1        0.0376
      4 C         140.6630  139.5715  165.3751 C.3     1  UNL1        0.0841
      5 C         140.3183  140.4758  164.2289 C.3     1  UNL1        0.0376
      6 C         140.5695  140.0289  162.8193 C.3     1  UNL1        0.0738
      7 N         140.4118  140.0183  166.7847 N.am    1  UNL1       -0.2423
      8 C         139.2091  139.6813  167.6154 C.2     1  UNL1        0.3309
      9 O         138.0465  138.8383  167.1822 O.2     1  UNL1       -0.2501
     10 N         139.3732  140.3353  168.9553 N.am    1  UNL1       -0.1647
     11 C         140.6773  141.0766  168.9528 C.2     1  UNL1        0.0706
     12 C         141.3631  141.9045  169.9987 C.3     1  UNL1        0.0705
     13 C         142.6910  142.5367  169.7031 C.2     1  UNL1       -0.0199
     14 C         143.3329  142.3408  168.3616 C.2     1  UNL1       -0.0029
     15 C         142.6470  141.5127  167.3157 C.2     1  UNL1        0.0156
     16 C         141.3192  140.8806  167.6113 C.2     1  UNL1        0.0668
     17 C         141.4166  138.2310  161.1460 C.3     1  UNL1        0.0739
     18 C         142.6908  137.5188  160.8007 C.3     1  UNL1        0.0392
     19 C         144.0071  138.2232  160.9474 C.3     1  UNL1        0.0996
     20 O         143.7181  139.3517  158.1827 O.2     1  UNL1       -0.2745
     21 C         143.9488  140.2690  159.3470 C.2     1  UNL1        0.2297
     22 C         144.0350  141.7505  159.1289 C.3     1  UNL1        0.0903
     23 C         144.2657  142.6678  160.2930 C.3     1  UNL1        0.0373
     24 C         144.4102  142.1036  161.6754 C.ar    1  UNL1       -0.0058
     25 C         144.6409  143.0209  162.8395 C.ar    1  UNL1        0.0266
     26 C         144.7854  142.4566  164.2218 C.ar    1  UNL1        0.1399
     27 F         145.0161  143.3739  165.3861 F       1  UNL1       -0.2042
     28 C         144.6991  140.9751  164.4399 C.ar    1  UNL1        0.0309
     29 C         144.4685  140.0578  163.2758 C.ar    1  UNL1        0.0169
     30 C         144.3240  140.6220  161.8935 C.ar    1  UNL1        0.0500
     31 N         144.0933  139.7047  160.7292 N.am    1  UNL1       -0.2589
@<TRIPOS>BOND
     1    20    21    2
     2    21    22    1
     3    22    23    1
     4    23    24    1
     5    24    25   ar
     6    25    26   ar
     7    26    27    1
     8    26    28   ar
     9    28    29   ar
    10    29    30   ar
    11    30    31    1
    12    31    19    1
    13    19    18    1
    14    18    17    1
    15    17     1    1
    16     1     2    1
    17     2     3    1
    18     3     4    1
    19     4     7    1
    20     7     8   am
    21     8     9    2
    22     8    10    1
    23    10    11    2
    24    11    12    1
    25    12    13    1
    26    13    14    2
    27    14    15    1
    28    15    16    2
    29     4     5    1
    30     5     6    1
    31    31    21   am
    32     6     1    1
    33    30    24   ar
    34    16     7    1
    35    16    11    1
@<TRIPOS>MOLECULE
*****
 31 35 0 0 0
SMALL
GASTEIGER

@<TRIPOS>ATOM
      1 N         141.2276  140.2404  162.1898 N.3     1  UNL1       -0.2725
      2 C         140.1191  139.9819  163.1667 C.3     1  UNL1        0.0738
      3 C         140.4042  139.9729  164.6394 C.3     1  UNL1        0.0376
      4 C         141.7978  140.2224  165.1351 C.3     1  UNL1        0.0841
      5 C         142.9063  140.4809  164.1580 C.3     1  UNL1        0.0376
      6 C         142.6212  140.4899  162.6854 C.3     1  UNL1        0.0738
      7 N         142.0829  140.2134  166.6077 N.am    1  UNL1       -0.2423
      8 C         142.9175  139.2034  167.3380 C.2     1  UNL1        0.3309
      9 O         143.6134  138.0250  166.7239 O.2     1  UNL1       -0.2501
     10 N         142.9339  139.5786  168.7902 N.am    1  UNL1       -0.1647
     11 C         142.1095  140.8206  168.9574 C.2     1  UNL1        0.0706
     12 C         141.7699  141.6449  170.1637 C.3     1  UNL1        0.0705
     13 C         140.9042  142.8616  170.0211 C.2     1  UNL1       -0.0199
     14 C         140.3783  143.2540  168.6721 C.2     1  UNL1       -0.0029
     15 C         140.7180  142.4296  167.4659 C.2     1  UNL1        0.0156
     16 C         141.5836  141.2129  167.6085 C.2     1  UNL1        0.0668
     17 C         140.9424  140.2494  160.7172 C.3     1  UNL1        0.0739
     18 C         141.4244  141.3872  159.8669 C.3     1  UNL1        0.0392
     19 C         140.9225  142.7779  160.1204 C.3     1  UNL1        0.0996
     20 O         143.7514  143.6405  160.6238 O.2     1  UNL1       -0.2745
     21 C         142.6905  143.9131  161.6486 C.2     1  UNL1        0.2297
     22 C         143.0440  144.6169  162.9252 C.3     1  UNL1        0.0903
     23 C         141.9832  144.8894  163.9500 C.3     1  UNL1        0.0373
     24 C         140.5687  144.4581  163.6984 C.ar    1  UNL1       -0.0058
     25 C         139.5079  144.7306  164.7232 C.ar    1  UNL1        0.0266
     26 C         138.0935  144.2993  164.4715 C.ar    1  UNL1        0.1399
     27 F         137.0326  144.5718  165.4963 F       1  UNL1       -0.2042
     28 C         137.7400  143.5955  163.1949 C.ar    1  UNL1        0.0309
     29 C         138.8008  143.3230  162.1701 C.ar    1  UNL1        0.0169
     30 C         140.2152  143.7543  162.4218 C.ar    1  UNL1        0.0500
     31 N         141.2761  143.4817  161.3969 N.am    1  UNL1       -0.2589
@<TRIPOS>BOND
     1    20    21    2
     2    21    22    1
     3    22    23    1
     4    23    24    1
     5    24    25   ar
     6    25    26   ar
     7    26    27    1
     8    26    28   ar
     9    28    29   ar
    10    29    30   ar
    11    30    31    1
    12    31    19    1
    13    19    18    1
    14    18    17    1
    15    17     1    1
    16     1     2    1
    17     2     3    1
    18     3     4    1
    19     4     7    1
    20     7     8   am
    21     8     9    2
    22     8    10    1
    23    10    11    2
    24    11    12    1
    25    12    13    1
    26    13    14    2
    27    14    15    1
    28    15    16    2
    29     4     5    1
    30     5     6    1
    31    31    21   am
    32     6     1    1
    33    30    24   ar
    34    16     7    1
    35    16    11    1
@<TRIPOS>MOLECULE
*****
 31 35 0 0 0
SMALL
GASTEIGER

@<TRIPOS>ATOM
      1 N         142.0804  139.8374  162.7814 N.3     1  UNL1       -0.2725
      2 C         142.6092  138.8789  163.8068 C.3     1  UNL1        0.0738
      3 C         142.0514  138.8873  165.1993 C.3     1  UNL1        0.0376
      4 C         140.9650  139.8543  165.5662 C.3     1  UNL1        0.0841
      5 C         140.4362  140.8128  164.5407 C.3     1  UNL1        0.0376
      6 C         140.9940  140.8044  163.1483 C.3     1  UNL1        0.0738
      7 N         140.4072  139.8627  166.9586 N.am    1  UNL1       -0.2423
      8 C         139.0030  139.5070  167.3481 C.2     1  UNL1        0.3309
      9 O         137.9100  139.0804  166.4135 O.2     1  UNL1       -0.2501
     10 N         138.8837  139.6527  168.8362 N.am    1  UNL1       -0.1647
     11 C         140.2142  140.0986  169.3665 C.2     1  UNL1        0.0706
     12 C         140.6898  140.4031  170.7561 C.3     1  UNL1        0.0705
     13 C         142.1072  140.8374  170.9853 C.2     1  UNL1       -0.0199
     14 C         143.0488  140.9672  169.8248 C.2     1  UNL1       -0.0029
     15 C         142.5731  140.6626  168.4352 C.2     1  UNL1        0.0156
     16 C         141.1557  140.2283  168.2061 C.2     1  UNL1        0.0668
     17 C         142.6382  139.8290  161.3890 C.3     1  UNL1        0.0739
     18 C         144.0667  140.2196  161.1509 C.3     1  UNL1        0.0392
     19 C         144.4647  141.6655  161.1855 C.3     1  UNL1        0.0996
     20 O         145.9983  141.3084  163.7391 O.2     1  UNL1       -0.2745
     21 C         144.9004  142.3275  163.6597 C.2     1  UNL1        0.2297
     22 C         144.5693  143.1681  164.8571 C.3     1  UNL1        0.0903
     23 C         143.4716  144.1872  164.7778 C.3     1  UNL1        0.0373
     24 C         142.7048  144.3657  163.5009 C.ar    1  UNL1       -0.0058
     25 C         141.6070  145.3848  163.4216 C.ar    1  UNL1        0.0266
     26 C         140.8402  145.5633  162.1448 C.ar    1  UNL1        0.1399
     27 F         139.7424  146.5824  162.0654 F       1  UNL1       -0.2042
     28 C         141.1713  144.7227  160.9474 C.ar    1  UNL1        0.0309
     29 C         142.2691  143.7036  161.0267 C.ar    1  UNL1        0.0169
     30 C         143.0358  143.5251  162.3035 C.ar    1  UNL1        0.0500
     31 N         144.1337  142.5060  162.3829 N.am    1  UNL1       -0.2589
@<TRIPOS>BOND
     1    20    21    2
     2    21    22    1
     3    22    23    1
     4    23    24    1
     5    24    25   ar
     6    25    26   ar
     7    26    27    1
     8    26    28   ar
     9    28    29   ar
    10    29    30   ar
    11    30    31    1
    12    31    19    1
    13    19    18    1
    14    18    17    1
    15    17     1    1
    16     1     2    1
    17     2     3    1
    18     3     4    1
    19     4     7    1
    20     7     8   am
    21     8     9    2
    22     8    10    1
    23    10    11    2
    24    11    12    1
    25    12    13    1
    26    13    14    2
    27    14    15    1
    28    15    16    2
    29     4     5    1
    30     5     6    1
    31    31    21   am
    32     6     1    1
    33    30    24   ar
    34    16     7    1
    35    16    11    1
@<TRIPOS>MOLECULE
*****
 31 35 0 0 0
SMALL
GASTEIGER

@<TRIPOS>ATOM
      1 N         139.2561  141.2757  163.0329 N.3     1  UNL1       -0.2725
      2 C         139.0659  142.3894  164.0196 C.3     1  UNL1        0.0738
      3 C         139.3829  142.1695  165.4692 C.3     1  UNL1        0.0376
      4 C         139.8900  140.8358  165.9320 C.3     1  UNL1        0.0841
      5 C         140.0802  139.7221  164.9453 C.3     1  UNL1        0.0376
      6 C         139.7633  139.9421  163.4958 C.3     1  UNL1        0.0738
      7 N         140.2070  140.6159  167.3815 N.am    1  UNL1       -0.2423
      8 C         139.3955  139.8055  168.3483 C.2     1  UNL1        0.3309
      9 O         138.1246  139.0728  168.0354 O.2     1  UNL1       -0.2501
     10 N         140.0780  139.8564  169.6831 N.am    1  UNL1       -0.1647
     11 C         141.3114  140.6983  169.5412 C.2     1  UNL1        0.0706
     12 C         142.3721  141.0981  170.5235 C.3     1  UNL1        0.0705
     13 C         143.5127  141.9674  170.0833 C.2     1  UNL1       -0.0199
     14 C         143.5924  142.4368  168.6608 C.2     1  UNL1       -0.0029
     15 C         142.5316  142.0369  167.6786 C.2     1  UNL1        0.0156
     16 C         141.3911  141.1677  168.1187 C.2     1  UNL1        0.0668
     17 C         138.9392  141.4957  161.5834 C.3     1  UNL1        0.0739
     18 C         139.4185  142.7369  160.8908 C.3     1  UNL1        0.0392
     19 C         140.8891  142.9988  160.7535 C.3     1  UNL1        0.0996
     20 O         140.5741  145.7666  161.8671 O.2     1  UNL1       -0.2745
     21 C         141.5329  144.8058  162.5057 C.2     1  UNL1        0.2297
     22 C         142.3341  145.2290  163.7011 C.3     1  UNL1        0.0903
     23 C         143.2929  144.2683  164.3397 C.3     1  UNL1        0.0373
     24 C         143.4504  142.8843  163.7829 C.ar    1  UNL1       -0.0058
     25 C         144.4092  141.9237  164.4215 C.ar    1  UNL1        0.0266
     26 C         144.5667  140.5398  163.8647 C.ar    1  UNL1        0.1399
     27 F         145.5255  139.5790  164.5033 F       1  UNL1       -0.2042
     28 C         143.7654  140.1166  162.6693 C.ar    1  UNL1        0.0309
     29 C         142.8067  141.0773  162.0307 C.ar    1  UNL1        0.0169
     30 C         142.6492  142.4612  162.5875 C.ar    1  UNL1        0.0500
     31 N         141.6904  143.4219  161.9489 N.am    1  UNL1       -0.2589
@<TRIPOS>BOND
     1    20    21    2
     2    21    22    1
     3    22    23    1
     4    23    24    1
     5    24    25   ar
     6    25    26   ar
     7    26    27    1
     8    26    28   ar
     9    28    29   ar
    10    29    30   ar
    11    30    31    1
    12    31    19    1
    13    19    18    1
    14    18    17    1
    15    17     1    1
    16     1     2    1
    17     2     3    1
    18     3     4    1
    19     4     7    1
    20     7     8   am
    21     8     9    2
    22     8    10    1
    23    10    11    2
    24    11    12    1
    25    12    13    1
    26    13    14    2
    27    14    15    1
    28    15    16    2
    29     4     5    1
    30     5     6    1
    31    31    21   am
    32     6     1    1
    33    30    24   ar
    34    16     7    1
    35    16    11    1
@<TRIPOS>MOLECULE
*****
 31 35 0 0 0
SMALL
GASTEIGER

@<TRIPOS>ATOM
      1 N         139.6973  138.5707  164.2981 N.3     1  UNL1       -0.2725
      2 C         141.0382  138.5421  164.9697 C.3     1  UNL1        0.0738
      3 C         141.2042  139.1329  166.3385 C.3     1  UNL1        0.0376
      4 C         140.0292  139.7522  167.0356 C.3     1  UNL1        0.0841
      5 C         138.6883  139.7807  166.3639 C.3     1  UNL1        0.0376
      6 C         138.5224  139.1900  164.9952 C.3     1  UNL1        0.0738
      7 N         140.1952  140.3429  168.4043 N.am    1  UNL1       -0.2423
      8 C         139.2368  140.1983  169.5491 C.2     1  UNL1        0.3309
      9 O         137.9442  139.4376  169.5262 O.2     1  UNL1       -0.2501
     10 N         139.7979  140.9480  170.7209 N.am    1  UNL1       -0.1647
     11 C         141.1031  141.5560  170.3003 C.2     1  UNL1        0.0706
     12 C         142.0997  142.4018  171.0361 C.3     1  UNL1        0.0705
     13 C         143.3419  142.8737  170.3401 C.2     1  UNL1       -0.0199
     14 C         143.5874  142.4997  168.9083 C.2     1  UNL1       -0.0029
     15 C         142.5908  141.6539  168.1726 C.2     1  UNL1        0.0156
     16 C         141.3486  141.1820  168.8686 C.2     1  UNL1        0.0668
     17 C         139.5314  137.9799  162.9294 C.3     1  UNL1        0.0739
     18 C         139.0503  138.8367  161.7960 C.3     1  UNL1        0.0392
     19 C         139.7362  140.1362  161.4945 C.3     1  UNL1        0.0996
     20 O         137.1483  141.5045  162.1506 O.2     1  UNL1       -0.2745
     21 C         138.4162  141.9331  162.8280 C.2     1  UNL1        0.2297
     22 C         138.3900  143.0459  163.8335 C.3     1  UNL1        0.0903
     23 C         139.6578  143.4745  164.5110 C.3     1  UNL1        0.0373
     24 C         140.9518  142.7904  164.1830 C.ar    1  UNL1       -0.0058
     25 C         142.2196  143.2190  164.8605 C.ar    1  UNL1        0.0266
     26 C         143.5135  142.5348  164.5324 C.ar    1  UNL1        0.1399
     27 F         144.7813  142.9634  165.2099 F       1  UNL1       -0.2042
     28 C         143.5396  141.4221  163.5269 C.ar    1  UNL1        0.0309
     29 C         142.2719  140.9934  162.8494 C.ar    1  UNL1        0.0169
     30 C         140.9779  141.6776  163.1775 C.ar    1  UNL1        0.0500
     31 N         139.7101  141.2490  162.5000 N.am    1  UNL1       -0.2589
@<TRIPOS>BOND
     1    20    21    2
     2    21    22    1
     3    22    23    1
     4    23    24    1
     5    24    25   ar
     6    25    26   ar
     7    26    27    1
     8    26    28   ar
     9    28    29   ar
    10    29    30   ar
    11    30    31    1
    12    31    19    1
    13    19    18    1
    14    18    17    1
    15    17     1    1
    16     1     2    1
    17     2     3    1
    18     3     4    1
    19     4     7    1
    20     7     8   am
    21     8     9    2
    22     8    10    1
    23    10    11    2
    24    11    12    1
    25    12    13    1
    26    13    14    2
    27    14    15    1
    28    15    16    2
    29     4     5    1
    30     5     6    1
    31    31    21   am
    32     6     1    1
    33    30    24   ar
    34    16     7    1
    35    16    11    1
@<TRIPOS>MOLECULE
*****
 31 35 0 0 0
SMALL
GASTEIGER

@<TRIPOS>ATOM
      1 N         140.5998  140.5657  162.0361 N.3     1  UNL1       -0.2725
      2 C         140.3918  141.7899  162.8775 C.3     1  UNL1        0.0738
      3 C         140.1862  141.6568  164.3574 C.3     1  UNL1        0.0376
      4 C         140.1886  140.2995  164.9958 C.3     1  UNL1        0.0841
      5 C         140.3966  139.0752  164.1543 C.3     1  UNL1        0.0376
      6 C         140.6022  139.2084  162.6745 C.3     1  UNL1        0.0738
      7 N         139.9831  140.1663  166.4757 N.am    1  UNL1       -0.2423
      8 C         138.8067  139.5228  167.1480 C.2     1  UNL1        0.3309
      9 O         137.6294  138.8994  166.4585 O.2     1  UNL1       -0.2501
     10 N         139.0143  139.6121  168.6309 N.am    1  UNL1       -0.1647
     11 C         140.3190  140.3108  168.8750 C.2     1  UNL1        0.0706
     12 C         141.0391  140.6793  170.1382 C.3     1  UNL1        0.0705
     13 C         142.3581  141.3905  170.0693 C.2     1  UNL1       -0.0199
     14 C         142.9569  141.7330  168.7373 C.2     1  UNL1       -0.0029
     15 C         142.2366  141.3644  167.4742 C.2     1  UNL1        0.0156
     16 C         140.9177  140.6533  167.5430 C.2     1  UNL1        0.0668
     17 C         140.8054  140.6989  160.5563 C.3     1  UNL1        0.0739
     18 C         142.0402  140.1363  159.9170 C.3     1  UNL1        0.0392
     19 C         143.3925  140.6418  160.3243 C.3     1  UNL1        0.0996
     20 O         144.0559  138.0270  161.6369 O.2     1  UNL1       -0.2745
     21 C         144.1336  139.3020  162.4233 C.2     1  UNL1        0.2297
     22 C         144.5431  139.2696  163.8659 C.3     1  UNL1        0.0903
     23 C         144.6209  140.5446  164.6523 C.3     1  UNL1        0.0373
     24 C         144.2892  141.8520  163.9960 C.ar    1  UNL1       -0.0058
     25 C         144.3670  143.1269  164.7824 C.ar    1  UNL1        0.0266
     26 C         144.0354  144.4343  164.1261 C.ar    1  UNL1        0.1399
     27 F         144.1132  145.7093  164.9125 F       1  UNL1       -0.2042
     28 C         143.6259  144.4667  162.6834 C.ar    1  UNL1        0.0309
     29 C         143.5481  143.1918  161.8971 C.ar    1  UNL1        0.0169
     30 C         143.8798  141.8844  162.5534 C.ar    1  UNL1        0.0500
     31 N         143.8020  140.6094  161.7670 N.am    1  UNL1       -0.2589
@<TRIPOS>BOND
     1    20    21    2
     2    21    22    1
     3    22    23    1
     4    23    24    1
     5    24    25   ar
     6    25    26   ar
     7    26    27    1
     8    26    28   ar
     9    28    29   ar
    10    29    30   ar
    11    30    31    1
    12    31    19    1
    13    19    18    1
    14    18    17    1
    15    17     1    1
    16     1     2    1
    17     2     3    1
    18     3     4    1
    19     4     7    1
    20     7     8   am
    21     8     9    2
    22     8    10    1
    23    10    11    2
    24    11    12    1
    25    12    13    1
    26    13    14    2
    27    14    15    1
    28    15    16    2
    29     4     5    1
    30     5     6    1
    31    31    21   am
    32     6     1    1
    33    30    24   ar
    34    16     7    1
    35    16    11    1
@<TRIPOS>MOLECULE
*****
 31 35 0 0 0
SMALL
GASTEIGER

@<TRIPOS>ATOM
      1 N         138.6172  140.1055  162.2472 N.3     1  UNL1       -0.2725
      2 C         137.6382  140.5602  163.2887 C.3     1  UNL1        0.0738
      3 C         138.0454  140.6055  164.7318 C.3     1  UNL1        0.0376
      4 C         139.4314  140.1960  165.1332 C.3     1  UNL1        0.0841
      5 C         140.4104  139.7413  164.0915 C.3     1  UNL1        0.0376
      6 C         140.0032  139.6960  162.6486 C.3     1  UNL1        0.0738
      7 N         139.8386  140.2412  166.5761 N.am    1  UNL1       -0.2423
      8 C         139.1304  139.5670  167.7135 C.2     1  UNL1        0.3309
      9 O         137.8907  138.7291  167.6078 O.2     1  UNL1       -0.2501
     10 N         139.8795  139.8776  168.9754 N.am    1  UNL1       -0.1647
     11 C         141.0507  140.7440  168.6178 C.2     1  UNL1        0.0706
     12 C         142.1369  141.3571  169.4509 C.3     1  UNL1        0.0705
     13 C         143.1979  142.1951  168.8011 C.2     1  UNL1       -0.0199
     14 C         143.1726  142.4198  167.3182 C.2     1  UNL1       -0.0029
     15 C         142.0864  141.8066  166.4852 C.2     1  UNL1        0.0156
     16 C         141.0254  140.9686  167.1350 C.2     1  UNL1        0.0668
     17 C         138.2100  140.0603  160.8042 C.3     1  UNL1        0.0739
     18 C         138.9383  140.8951  159.7929 C.3     1  UNL1        0.0392
     19 C         139.1739  142.3533  160.0539 C.3     1  UNL1        0.0996
     20 O         142.0976  141.8700  159.5867 O.2     1  UNL1       -0.2745
     21 C         141.6401  142.5365  160.8502 C.2     1  UNL1        0.2297
     22 C         142.6445  142.9614  161.8801 C.3     1  UNL1        0.0903
     23 C         142.1870  143.6280  163.1436 C.3     1  UNL1        0.0373
     24 C         140.7251  143.8696  163.3772 C.ar    1  UNL1       -0.0058
     25 C         140.2677  144.5362  164.6407 C.ar    1  UNL1        0.0266
     26 C         138.8058  144.7778  164.8743 C.ar    1  UNL1        0.1399
     27 F         138.3483  145.4444  166.1378 F       1  UNL1       -0.2042
     28 C         137.8015  144.3530  163.8444 C.ar    1  UNL1        0.0309
     29 C         138.2589  143.6864  162.5809 C.ar    1  UNL1        0.0169
     30 C         139.7208  143.4448  162.3473 C.ar    1  UNL1        0.0500
     31 N         140.1783  142.7782  161.0838 N.am    1  UNL1       -0.2589
@<TRIPOS>BOND
     1    20    21    2
     2    21    22    1
     3    22    23    1
     4    23    24    1
     5    24    25   ar
     6    25    26   ar
     7    26    27    1
     8    26    28   ar
     9    28    29   ar
    10    29    30   ar
    11    30    31    1
    12    31    19    1
    13    19    18    1
    14    18    17    1
    15    17     1    1
    16     1     2    1
    17     2     3    1
    18     3     4    1
    19     4     7    1
    20     7     8   am
    21     8     9    2
    22     8    10    1
    23    10    11    2
    24    11    12    1
    25    12    13    1
    26    13    14    2
    27    14    15    1
    28    15    16    2
    29     4     5    1
    30     5     6    1
    31    31    21   am
    32     6     1    1
    33    30    24   ar
    34    16     7    1
    35    16    11    1
@<TRIPOS>MOLECULE
*****
 31 35 0 0 0
SMALL
GASTEIGER

@<TRIPOS>ATOM
      1 N         142.1897  140.8095  162.3692 N.3     1  UNL1       -0.2725
      2 C         141.4899  139.6587  163.0291 C.3     1  UNL1        0.0738
      3 C         141.5164  139.5214  164.5227 C.3     1  UNL1        0.0376
      4 C         142.2429  140.5351  165.3561 C.3     1  UNL1        0.0841
      5 C         142.9428  141.6860  164.6961 C.3     1  UNL1        0.0376
      6 C         142.9162  141.8232  163.2026 C.3     1  UNL1        0.0738
      7 N         142.2695  140.3979  166.8496 N.am    1  UNL1       -0.2423
      8 C         142.9511  139.3082  167.6228 C.2     1  UNL1        0.3309
      9 O         143.7257  138.1644  167.0384 O.2     1  UNL1       -0.2501
     10 N         142.7220  139.5631  169.0832 N.am    1  UNL1       -0.1647
     11 C         141.8988  140.8104  169.2124 C.2     1  UNL1        0.0706
     12 C         141.3678  141.5430  170.4088 C.3     1  UNL1        0.0705
     13 C         140.5571  142.7916  170.2248 C.2     1  UNL1       -0.0199
     14 C         140.2774  143.3075  168.8443 C.2     1  UNL1       -0.0029
     15 C         140.8085  142.5749  167.6479 C.2     1  UNL1        0.0156
     16 C         141.6192  141.3263  167.8320 C.2     1  UNL1        0.0668
     17 C         142.1632  140.9467  160.8757 C.3     1  UNL1        0.0739
     18 C         141.8455  142.2724  160.2499 C.3     1  UNL1        0.0392
     19 C         140.4229  142.7408  160.1665 C.3     1  UNL1        0.0996
     20 O         138.8408  140.2534  159.6100 O.2     1  UNL1       -0.2745
     21 C         138.6226  141.0113  160.8860 C.2     1  UNL1        0.2297
     22 C         137.6134  140.5254  161.8837 C.3     1  UNL1        0.0903
     23 C         137.3952  141.2833  163.1596 C.3     1  UNL1        0.0373
     24 C         138.1863  142.5270  163.4379 C.ar    1  UNL1       -0.0058
     25 C         137.9681  143.2848  164.7138 C.ar    1  UNL1        0.0266
     26 C         138.7592  144.5285  164.9921 C.ar    1  UNL1        0.1399
     27 F         138.5410  145.2864  166.2681 F       1  UNL1       -0.2042
     28 C         139.7684  145.0143  163.9944 C.ar    1  UNL1        0.0309
     29 C         139.9866  144.2565  162.7184 C.ar    1  UNL1        0.0169
     30 C         139.1955  143.0128  162.4402 C.ar    1  UNL1        0.0500
     31 N         139.4137  142.2550  161.1642 N.am    1  UNL1       -0.2589
@<TRIPOS>BOND
     1    20    21    2
     2    21    22    1
     3    22    23    1
     4    23    24    1
     5    24    25   ar
     6    25    26   ar
     7    26    27    1
     8    26    28   ar
     9    28    29   ar
    10    29    30   ar
    11    30    31    1
    12    31    19    1
    13    19    18    1
    14    18    17    1
    15    17     1    1
    16     1     2    1
    17     2     3    1
    18     3     4    1
    19     4     7    1
    20     7     8   am
    21     8     9    2
    22     8    10    1
    23    10    11    2
    24    11    12    1
    25    12    13    1
    26    13    14    2
    27    14    15    1
    28    15    16    2
    29     4     5    1
    30     5     6    1
    31    31    21   am
    32     6     1    1
    33    30    24   ar
    34    16     7    1
    35    16    11    1
