@<TRIPOS>MOLECULE
*****
 39 42 0 0 0
SMALL
GASTEIGER

@<TRIPOS>ATOM
      1 C         139.8123  139.6017  158.6342 C.3     1  UNL1        0.1502
      2 C         140.3529  139.6169  160.0334 C.3     1  UNL1        0.1037
      3 N         139.3176  140.2379  160.9236 N.3     1  UNL1       -0.2704
      4 C         138.1372  140.6065  160.0747 C.3     1  UNL1        0.0944
      5 C         138.4429  140.2134  158.6598 C.3     1  UNL1        0.1161
      6 C         139.4411  140.4525  162.4031 C.3     1  UNL1        0.0576
      7 C         140.6818  141.0771  162.9693 C.3     1  UNL1        0.0163
      8 C         140.8052  141.2917  164.4487 C.3     1  UNL1        0.0057
      9 C         139.6881  140.8818  165.3619 C.3     1  UNL1        0.0224
     10 C         138.4474  140.2572  164.7956 C.3     1  UNL1        0.0057
     11 C         138.3239  140.0426  163.3163 C.3     1  UNL1        0.0163
     12 C         139.8116  141.0964  166.8413 C.ar    1  UNL1       -0.0225
     13 C         140.4477  142.3490  167.3669 C.ar    1  UNL1       -0.0043
     14 C         140.5712  142.5637  168.8464 C.ar    1  UNL1       -0.0003
     15 C         140.0586  141.5257  169.8002 C.ar    1  UNL1       -0.0000
     16 C         139.4225  140.2730  169.2745 C.ar    1  UNL1       -0.0003
     17 C         139.2990  140.0584  167.7952 C.ar    1  UNL1       -0.0043
     18 N         137.5380  140.3992  157.4780 N.am    1  UNL1       -0.3009
     19 C         137.5052  141.7147  156.7581 C.2     1  UNL1        0.2426
     20 O         138.3772  142.8444  157.2201 O.2     1  UNL1       -0.2733
     21 H         136.9657  139.6577  157.1748 H       1  UNL1        0.1496
     22 C         136.6004  141.9006  155.5762 C.3     1  UNL1        0.1759
     23 N         135.1119  141.8595  155.7574 N.am    1  UNL1       -0.2931
     24 C         134.4002  140.5407  155.8209 C.2     1  UNL1        0.2462
     25 O         135.1770  139.2629  155.7033 O.2     1  UNL1       -0.2701
     26 H         134.6021  142.6982  155.8347 H       1  UNL1        0.1502
     27 C         132.9118  140.4996  156.0021 C.ar    1  UNL1        0.0533
     28 C         132.0373  141.4530  155.2430 C.ar    1  UNL1        0.0045
     29 C         130.5488  141.4120  155.4241 C.ar    1  UNL1        0.0001
     30 C         129.9348  140.4174  156.3644 C.ar    1  UNL1        0.0039
     31 C         130.8094  139.4640  157.1234 C.ar    1  UNL1        0.0716
     32 C         132.2978  139.5051  156.9423 C.ar    1  UNL1        0.0084
     33 C         130.1954  138.4695  158.0636 C.3     1  UNL1        0.4186
     34 F         129.5815  137.4750  159.0038 F       1  UNL1       -0.1659
     35 F         128.8472  138.7319  157.4608 F       1  UNL1       -0.1659
     36 F         131.5437  138.2071  158.6665 F       1  UNL1       -0.1659
     37 O         140.5173  139.0685  157.4224 O.3     1  UNL1       -0.3531
     38 C         139.2057  137.4576  155.8620 C.3     1  UNL1        0.0346
     39 C         140.2280  137.6790  156.9371 C.3     1  UNL1        0.1423
@<TRIPOS>BOND
     1    38    39    1
     2    39    37    1
     3     1    37    1
     4     1     2    1
     5     2     3    1
     6     6     3    1
     7     6     7    1
     8     7     8    1
     9     8     9    1
    10     9    12    1
    11    12    13   ar
    12    13    14   ar
    13    14    15   ar
    14    15    16   ar
    15    16    17   ar
    16     9    10    1
    17    10    11    1
    18     3     4    1
    19     4     5    1
    20     5    18    1
    21    18    19   am
    22    19    20    2
    23    19    22    1
    24    22    23    1
    25    23    24   am
    26    24    25    2
    27    24    27    1
    28    27    28   ar
    29    28    29   ar
    30    29    30   ar
    31    30    31   ar
    32    31    33    1
    33    33    34    1
    34    33    35    1
    35    33    36    1
    36    31    32   ar
    37     5     1    1
    38    32    27   ar
    39    11     6    1
    40    17    12   ar
    41    18    21    1
    42    23    26    1
@<TRIPOS>MOLECULE
*****
 39 42 0 0 0
SMALL
GASTEIGER

@<TRIPOS>ATOM
      1 C         138.1783  139.9220  159.5442 C.3     1  UNL1        0.1502
      2 C         137.9712  140.4445  160.9349 C.3     1  UNL1        0.1037
      3 N         139.1369  140.0086  161.7722 N.3     1  UNL1       -0.2704
      4 C         140.0644  139.2166  160.8991 C.3     1  UNL1        0.0944
      5 C         139.4720  139.1631  159.5220 C.3     1  UNL1        0.1161
      6 C         139.3394  140.3115  163.2274 C.3     1  UNL1        0.0576
      7 C         140.5659  141.0492  163.6762 C.3     1  UNL1        0.0163
      8 C         140.7684  141.3521  165.1313 C.3     1  UNL1        0.0057
      9 C         139.7445  140.9171  166.1375 C.3     1  UNL1        0.0224
     10 C         138.5180  140.1794  165.6886 C.3     1  UNL1        0.0057
     11 C         138.3155  139.8765  164.2336 C.3     1  UNL1        0.0163
     12 C         139.9470  141.2200  167.5926 C.ar    1  UNL1       -0.0225
     13 C         140.5627  142.5229  168.0088 C.ar    1  UNL1       -0.0043
     14 C         140.7652  142.8258  169.4640 C.ar    1  UNL1       -0.0003
     15 C         140.3521  141.8257  170.5028 C.ar    1  UNL1       -0.0000
     16 C         139.7364  140.5227  170.0865 C.ar    1  UNL1       -0.0003
     17 C         139.5339  140.2199  168.6314 C.ar    1  UNL1       -0.0043
     18 N         140.0685  138.4720  158.3318 N.am    1  UNL1       -0.3009
     19 C         141.0984  139.1725  157.4960 C.2     1  UNL1        0.2426
     20 O         141.5318  140.5641  157.8505 O.2     1  UNL1       -0.2733
     21 H         139.7840  137.5586  158.0992 H       1  UNL1        0.1496
     22 C         141.6949  138.4814  156.3058 C.3     1  UNL1        0.1759
     23 N         142.2393  137.0903  156.4412 N.am    1  UNL1       -0.2931
     24 C         141.4899  135.9312  155.8542 C.2     1  UNL1        0.2462
     25 O         140.1960  136.1631  155.1317 O.2     1  UNL1       -0.2701
     26 H         143.0886  136.9380  156.9154 H       1  UNL1        0.1502
     27 C         142.0343  134.5400  155.9895 C.ar    1  UNL1        0.0533
     28 C         141.3424  133.3947  155.3117 C.ar    1  UNL1        0.0045
     29 C         141.8867  132.0034  155.4469 C.ar    1  UNL1        0.0001
     30 C         143.1229  131.7575  156.2601 C.ar    1  UNL1        0.0039
     31 C         143.8148  132.9029  156.9379 C.ar    1  UNL1        0.0716
     32 C         143.2705  134.2941  156.8026 C.ar    1  UNL1        0.0084
     33 C         145.0510  132.6570  157.7511 C.3     1  UNL1        0.4186
     34 F         146.2873  132.4111  158.5643 F       1  UNL1       -0.1659
     35 F         144.5676  133.6340  158.7816 F       1  UNL1       -0.1659
     36 F         145.5345  131.6800  156.7207 F       1  UNL1       -0.1659
     37 O         137.2540  140.1231  158.3800 O.3     1  UNL1       -0.3531
     38 C         136.6154  141.5870  156.3308 C.3     1  UNL1        0.0346
     39 C         137.6584  141.0195  157.2474 C.3     1  UNL1        0.1423
@<TRIPOS>BOND
     1    38    39    1
     2    39    37    1
     3     1    37    1
     4     1     2    1
     5     2     3    1
     6     6     3    1
     7     6     7    1
     8     7     8    1
     9     8     9    1
    10     9    12    1
    11    12    13   ar
    12    13    14   ar
    13    14    15   ar
    14    15    16   ar
    15    16    17   ar
    16     9    10    1
    17    10    11    1
    18     3     4    1
    19     4     5    1
    20     5    18    1
    21    18    19   am
    22    19    20    2
    23    19    22    1
    24    22    23    1
    25    23    24   am
    26    24    25    2
    27    24    27    1
    28    27    28   ar
    29    28    29   ar
    30    29    30   ar
    31    30    31   ar
    32    31    33    1
    33    33    34    1
    34    33    35    1
    35    33    36    1
    36    31    32   ar
    37     5     1    1
    38    32    27   ar
    39    11     6    1
    40    17    12   ar
    41    18    21    1
    42    23    26    1
@<TRIPOS>MOLECULE
*****
 39 42 0 0 0
SMALL
GASTEIGER

@<TRIPOS>ATOM
      1 C         143.6200  139.5499  159.6368 C.3     1  UNL1        0.1502
      2 C         143.5892  140.0453  161.0523 C.3     1  UNL1        0.1037
      3 N         142.5959  139.2169  161.8119 N.3     1  UNL1       -0.2704
      4 C         142.0127  138.2095  160.8658 C.3     1  UNL1        0.0944
      5 C         142.6456  138.4153  159.5216 C.3     1  UNL1        0.1161
      6 C         142.2469  139.3692  163.2628 C.3     1  UNL1        0.0576
      7 C         141.1370  140.2903  163.6746 C.3     1  UNL1        0.0163
      8 C         140.7881  140.4426  165.1254 C.3     1  UNL1        0.0057
      9 C         141.5492  139.6737  166.1645 C.3     1  UNL1        0.0224
     10 C         142.6590  138.7526  165.7527 C.3     1  UNL1        0.0057
     11 C         143.0079  138.6003  164.3019 C.3     1  UNL1        0.0163
     12 C         141.2002  139.8260  167.6155 C.ar    1  UNL1       -0.0225
     13 C         139.8199  140.2573  168.0136 C.ar    1  UNL1       -0.0043
     14 C         139.4709  140.4096  169.4645 C.ar    1  UNL1       -0.0003
     15 C         140.5024  140.1306  170.5172 C.ar    1  UNL1       -0.0000
     16 C         141.8828  139.6993  170.1190 C.ar    1  UNL1       -0.0003
     17 C         142.2317  139.5470  168.6682 C.ar    1  UNL1       -0.0043
     18 N         142.3552  137.6252  158.2800 N.am    1  UNL1       -0.3009
     19 C         141.3329  138.1181  157.2993 C.2     1  UNL1        0.2426
     20 O         140.6009  139.4012  157.5602 O.2     1  UNL1       -0.2733
     21 H         142.8356  136.7831  158.1088 H       1  UNL1        0.1496
     22 C         141.0424  137.3280  156.0578 C.3     1  UNL1        0.1759
     23 N         141.1005  135.8296  156.0917 N.am    1  UNL1       -0.2931
     24 C         142.4255  135.1289  156.0344 C.2     1  UNL1        0.2462
     25 O         143.6925  135.9267  155.9433 O.2     1  UNL1       -0.2701
     26 H         140.2690  135.3059  156.1515 H       1  UNL1        0.1502
     27 C         142.4837  133.6304  156.0683 C.ar    1  UNL1        0.0533
     28 C         141.5361  132.8240  155.2305 C.ar    1  UNL1        0.0045
     29 C         141.5942  131.3254  155.2643 C.ar    1  UNL1        0.0001
     30 C         142.5999  130.6334  156.1359 C.ar    1  UNL1        0.0039
     31 C         143.5475  131.4399  156.9736 C.ar    1  UNL1        0.0716
     32 C         143.4893  132.9383  156.9398 C.ar    1  UNL1        0.0084
     33 C         144.5532  130.7478  157.8452 C.3     1  UNL1        0.4186
     34 F         145.5589  130.0557  158.7168 F       1  UNL1       -0.1659
     35 F         145.5998  131.7352  157.4215 F       1  UNL1       -0.1659
     36 F         143.5065  129.7603  158.2688 F       1  UNL1       -0.1659
     37 O         144.4750  140.0937  158.5308 O.3     1  UNL1       -0.3531
     38 C         144.4914  142.6658  158.1648 C.3     1  UNL1        0.0346
     39 C         144.0259  141.2989  157.7589 C.3     1  UNL1        0.1423
@<TRIPOS>BOND
     1    38    39    1
     2    39    37    1
     3     1    37    1
     4     1     2    1
     5     2     3    1
     6     6     3    1
     7     6     7    1
     8     7     8    1
     9     8     9    1
    10     9    12    1
    11    12    13   ar
    12    13    14   ar
    13    14    15   ar
    14    15    16   ar
    15    16    17   ar
    16     9    10    1
    17    10    11    1
    18     3     4    1
    19     4     5    1
    20     5    18    1
    21    18    19   am
    22    19    20    2
    23    19    22    1
    24    22    23    1
    25    23    24   am
    26    24    25    2
    27    24    27    1
    28    27    28   ar
    29    28    29   ar
    30    29    30   ar
    31    30    31   ar
    32    31    33    1
    33    33    34    1
    34    33    35    1
    35    33    36    1
    36    31    32   ar
    37     5     1    1
    38    32    27   ar
    39    11     6    1
    40    17    12   ar
    41    18    21    1
    42    23    26    1
@<TRIPOS>MOLECULE
*****
 39 42 0 0 0
SMALL
GASTEIGER

@<TRIPOS>ATOM
      1 C         144.1881  141.8979  159.6061 C.3     1  UNL1        0.1502
      2 C         144.0924  142.3071  161.0460 C.3     1  UNL1        0.1037
      3 N         143.6517  141.1126  161.8391 N.3     1  UNL1       -0.2704
      4 C         143.4751  139.9651  160.8894 C.3     1  UNL1        0.0944
      5 C         143.8066  140.4504  159.5093 C.3     1  UNL1        0.1161
      6 C         143.4271  141.0726  163.3217 C.3     1  UNL1        0.0576
      7 C         143.3682  139.7550  164.0361 C.3     1  UNL1        0.0163
      8 C         143.1436  139.7151  165.5186 C.3     1  UNL1        0.0057
      9 C         142.9780  140.9928  166.2868 C.3     1  UNL1        0.0224
     10 C         143.0369  142.3104  165.5724 C.3     1  UNL1        0.0057
     11 C         143.2615  142.3503  164.0899 C.3     1  UNL1        0.0163
     12 C         142.7534  140.9529  167.7694 C.ar    1  UNL1       -0.0225
     13 C         142.8062  142.2200  168.5703 C.ar    1  UNL1       -0.0043
     14 C         142.5816  142.1800  170.0529 C.ar    1  UNL1       -0.0003
     15 C         142.3042  140.8729  170.7345 C.ar    1  UNL1       -0.0000
     16 C         142.2515  139.6058  169.9335 C.ar    1  UNL1       -0.0003
     17 C         142.4760  139.6458  168.4509 C.ar    1  UNL1       -0.0043
     18 N         143.7640  139.6320  158.2530 N.am    1  UNL1       -0.3009
     19 C         142.6158  139.7810  157.2993 C.2     1  UNL1        0.2426
     20 O         141.5102  140.7484  157.6020 O.2     1  UNL1       -0.2733
     21 H         144.4897  138.9970  158.0543 H       1  UNL1        0.1496
     22 C         142.5733  138.9625  156.0430 C.3     1  UNL1        0.1759
     23 N         142.2583  137.4976  156.1125 N.am    1  UNL1       -0.2931
     24 C         143.3462  136.4859  155.9062 C.2     1  UNL1        0.2462
     25 O         144.7493  136.9390  155.6304 O.2     1  UNL1       -0.2701
     26 H         141.3374  137.2002  156.2935 H       1  UNL1        0.1502
     27 C         143.0313  135.0210  155.9757 C.ar    1  UNL1        0.0533
     28 C         141.8152  134.4817  155.2827 C.ar    1  UNL1        0.0045
     29 C         141.5002  133.0167  155.3521 C.ar    1  UNL1        0.0001
     30 C         142.4012  132.0911  156.1146 C.ar    1  UNL1        0.0039
     31 C         143.6173  132.6305  156.8076 C.ar    1  UNL1        0.0716
     32 C         143.9323  134.0954  156.7382 C.ar    1  UNL1        0.0084
     33 C         144.5183  131.7049  157.5701 C.3     1  UNL1        0.4186
     34 F         145.4194  130.7793  158.3326 F       1  UNL1       -0.1659
     35 F         145.0461  132.8674  158.3576 F       1  UNL1       -0.1659
     36 F         143.9906  130.5425  156.7826 F       1  UNL1       -0.1659
     37 O         144.5941  142.7810  158.4636 O.3     1  UNL1       -0.3531
     38 C         145.7699  141.9349  156.3069 C.3     1  UNL1        0.0346
     39 C         145.8507  142.4879  157.6989 C.3     1  UNL1        0.1423
@<TRIPOS>BOND
     1    38    39    1
     2    39    37    1
     3     1    37    1
     4     1     2    1
     5     2     3    1
     6     6     3    1
     7     6     7    1
     8     7     8    1
     9     8     9    1
    10     9    12    1
    11    12    13   ar
    12    13    14   ar
    13    14    15   ar
    14    15    16   ar
    15    16    17   ar
    16     9    10    1
    17    10    11    1
    18     3     4    1
    19     4     5    1
    20     5    18    1
    21    18    19   am
    22    19    20    2
    23    19    22    1
    24    22    23    1
    25    23    24   am
    26    24    25    2
    27    24    27    1
    28    27    28   ar
    29    28    29   ar
    30    29    30   ar
    31    30    31   ar
    32    31    33    1
    33    33    34    1
    34    33    35    1
    35    33    36    1
    36    31    32   ar
    37     5     1    1
    38    32    27   ar
    39    11     6    1
    40    17    12   ar
    41    18    21    1
    42    23    26    1
@<TRIPOS>MOLECULE
*****
 39 42 0 0 0
SMALL
GASTEIGER

@<TRIPOS>ATOM
      1 C         141.6165  141.5486  159.4880 C.3     1  UNL1        0.1502
      2 C         142.5192  141.2887  158.3185 C.3     1  UNL1        0.1037
      3 N         143.8035  142.0280  158.5510 N.3     1  UNL1       -0.2704
      4 C         143.6946  142.7448  159.8641 C.3     1  UNL1        0.0944
      5 C         142.3430  142.4485  160.4432 C.3     1  UNL1        0.1161
      6 C         144.9886  142.0471  157.6316 C.3     1  UNL1        0.0576
      7 C         146.2201  142.8147  158.0114 C.3     1  UNL1        0.0163
      8 C         147.4052  142.8338  157.0921 C.3     1  UNL1        0.0057
      9 C         147.3588  142.0853  155.7929 C.3     1  UNL1        0.0224
     10 C         146.1273  141.3178  155.4132 C.3     1  UNL1        0.0057
     11 C         144.9422  141.2987  156.3325 C.3     1  UNL1        0.0163
     12 C         148.5439  142.1045  154.8736 C.ar    1  UNL1       -0.0225
     13 C         148.3926  142.5973  153.4650 C.ar    1  UNL1       -0.0043
     14 C         149.5777  142.6164  152.5457 C.ar    1  UNL1       -0.0003
     15 C         150.9142  142.1427  153.0350 C.ar    1  UNL1       -0.0000
     16 C         151.0655  141.6498  154.4436 C.ar    1  UNL1       -0.0003
     17 C         149.8804  141.6307  155.3629 C.ar    1  UNL1       -0.0043
     18 N         141.8112  142.9620  161.7484 N.am    1  UNL1       -0.3009
     19 C         141.1973  144.3286  161.8226 C.2     1  UNL1        0.2426
     20 O         141.1153  145.1817  160.5916 O.2     1  UNL1       -0.2733
     21 H         141.8651  142.4021  162.5564 H       1  UNL1        0.1496
     22 C         140.6655  144.8421  163.1278 C.3     1  UNL1        0.1759
     23 N         140.1514  143.8811  164.1584 N.am    1  UNL1       -0.2931
     24 C         141.1120  143.1600  165.0568 C.2     1  UNL1        0.2462
     25 O         142.5868  143.4000  164.9247 O.2     1  UNL1       -0.2701
     26 H         139.1835  143.7236  164.2451 H       1  UNL1        0.1502
     27 C         140.5980  142.1990  166.0874 C.ar    1  UNL1        0.0533
     28 C         140.7621  142.5054  167.5465 C.ar    1  UNL1        0.0045
     29 C         140.2481  141.5444  168.5773 C.ar    1  UNL1        0.0001
     30 C         139.5699  140.2769  168.1488 C.ar    1  UNL1        0.0039
     31 C         139.4058  139.9706  166.6896 C.ar    1  UNL1        0.0716
     32 C         139.9198  140.9316  165.6589 C.ar    1  UNL1        0.0084
     33 C         138.7276  138.7031  166.2611 C.3     1  UNL1        0.4186
     34 F         138.0494  137.4356  165.8326 F       1  UNL1       -0.1659
     35 F         137.6606  138.9256  167.2916 F       1  UNL1       -0.1659
     36 F         139.7947  138.4805  165.2306 F       1  UNL1       -0.1659
     37 O         140.2308  141.0041  159.6703 O.3     1  UNL1       -0.3531
     38 C         139.2939  140.4207  162.0223 C.3     1  UNL1        0.0346
     39 C         139.9569  139.9951  160.7459 C.3     1  UNL1        0.1423
@<TRIPOS>BOND
     1    38    39    1
     2    39    37    1
     3     1    37    1
     4     1     2    1
     5     2     3    1
     6     6     3    1
     7     6     7    1
     8     7     8    1
     9     8     9    1
    10     9    12    1
    11    12    13   ar
    12    13    14   ar
    13    14    15   ar
    14    15    16   ar
    15    16    17   ar
    16     9    10    1
    17    10    11    1
    18     3     4    1
    19     4     5    1
    20     5    18    1
    21    18    19   am
    22    19    20    2
    23    19    22    1
    24    22    23    1
    25    23    24   am
    26    24    25    2
    27    24    27    1
    28    27    28   ar
    29    28    29   ar
    30    29    30   ar
    31    30    31   ar
    32    31    33    1
    33    33    34    1
    34    33    35    1
    35    33    36    1
    36    31    32   ar
    37     5     1    1
    38    32    27   ar
    39    11     6    1
    40    17    12   ar
    41    18    21    1
    42    23    26    1
@<TRIPOS>MOLECULE
*****
 39 42 0 0 0
SMALL
GASTEIGER

@<TRIPOS>ATOM
      1 C         141.8583  140.5642  159.2078 C.3     1  UNL1        0.1502
      2 C         141.6861  141.0500  160.6164 C.3     1  UNL1        0.1037
      3 N         141.6201  139.8511  161.5155 N.3     1  UNL1       -0.2704
      4 C         141.7514  138.6243  160.6625 C.3     1  UNL1        0.0944
      5 C         141.8986  139.0650  159.2363 C.3     1  UNL1        0.1161
      6 C         141.4521  139.8749  163.0059 C.3     1  UNL1        0.0576
      7 C         142.5430  139.3507  163.8920 C.3     1  UNL1        0.0163
      8 C         142.3750  139.3745  165.3824 C.3     1  UNL1        0.0057
      9 C         141.1162  139.9225  165.9866 C.3     1  UNL1        0.0224
     10 C         140.0254  140.4467  165.1005 C.3     1  UNL1        0.0057
     11 C         140.1933  140.4229  163.6102 C.3     1  UNL1        0.0163
     12 C         140.9483  139.9463  167.4770 C.ar    1  UNL1       -0.0225
     13 C         139.6200  140.3015  168.0766 C.ar    1  UNL1       -0.0043
     14 C         139.4521  140.3253  169.5670 C.ar    1  UNL1       -0.0003
     15 C         140.6125  139.9938  170.4578 C.ar    1  UNL1       -0.0000
     16 C         141.9409  139.6386  169.8582 C.ar    1  UNL1       -0.0003
     17 C         142.1087  139.6148  168.3679 C.ar    1  UNL1       -0.0043
     18 N         142.0582  138.1645  158.0472 N.am    1  UNL1       -0.3009
     19 C         140.8541  137.7443  157.2577 C.2     1  UNL1        0.2426
     20 O         139.4903  138.2245  157.6572 O.2     1  UNL1       -0.2733
     21 H         142.9533  137.8493  157.7850 H       1  UNL1        0.1496
     22 C         141.0136  136.8439  156.0686 C.3     1  UNL1        0.1759
     23 N         141.6022  135.4747  156.2384 N.am    1  UNL1       -0.2931
     24 C         143.0908  135.2998  156.2936 C.2     1  UNL1        0.2462
     25 O         143.9911  136.4941  156.1791 O.2     1  UNL1       -0.2701
     26 H         141.0113  134.6908  156.3135 H       1  UNL1        0.1502
     27 C         143.6795  133.9306  156.4633 C.ar    1  UNL1        0.0533
     28 C         144.3414  133.5538  157.7555 C.ar    1  UNL1        0.0045
     29 C         144.9301  132.1845  157.9253 C.ar    1  UNL1        0.0001
     30 C         144.8568  131.1921  156.8029 C.ar    1  UNL1        0.0039
     31 C         144.1948  131.5691  155.5107 C.ar    1  UNL1        0.0716
     32 C         143.6062  132.9382  155.3409 C.ar    1  UNL1        0.0084
     33 C         144.1215  130.5767  154.3883 C.3     1  UNL1        0.4186
     34 F         144.0482  129.5843  153.2659 F       1  UNL1       -0.1659
     35 F         143.0049  131.3622  153.7667 F       1  UNL1       -0.1659
     36 F         145.2380  129.7912  155.0099 F       1  UNL1       -0.1659
     37 O         141.9704  141.4262  157.9853 O.3     1  UNL1       -0.3531
     38 C         144.5611  141.6120  157.9227 C.3     1  UNL1        0.0346
     39 C         143.2519  141.4601  157.2065 C.3     1  UNL1        0.1423
@<TRIPOS>BOND
     1    38    39    1
     2    39    37    1
     3     1    37    1
     4     1     2    1
     5     2     3    1
     6     6     3    1
     7     6     7    1
     8     7     8    1
     9     8     9    1
    10     9    12    1
    11    12    13   ar
    12    13    14   ar
    13    14    15   ar
    14    15    16   ar
    15    16    17   ar
    16     9    10    1
    17    10    11    1
    18     3     4    1
    19     4     5    1
    20     5    18    1
    21    18    19   am
    22    19    20    2
    23    19    22    1
    24    22    23    1
    25    23    24   am
    26    24    25    2
    27    24    27    1
    28    27    28   ar
    29    28    29   ar
    30    29    30   ar
    31    30    31   ar
    32    31    33    1
    33    33    34    1
    34    33    35    1
    35    33    36    1
    36    31    32   ar
    37     5     1    1
    38    32    27   ar
    39    11     6    1
    40    17    12   ar
    41    18    21    1
    42    23    26    1
@<TRIPOS>MOLECULE
*****
 39 42 0 0 0
SMALL
GASTEIGER

@<TRIPOS>ATOM
      1 C         140.1488  139.9848  159.0471 C.3     1  UNL1        0.1502
      2 C         139.9193  140.4331  160.4600 C.3     1  UNL1        0.1037
      3 N         140.6652  139.5016  161.3689 N.3     1  UNL1       -0.2704
      4 C         141.3557  138.4776  160.5177 C.3     1  UNL1        0.0944
      5 C         141.0366  138.7762  159.0828 C.3     1  UNL1        0.1161
      6 C         140.7123  139.5804  162.8661 C.3     1  UNL1        0.0576
      7 C         140.3772  138.3736  163.6915 C.3     1  UNL1        0.0163
      8 C         140.4243  138.4524  165.1887 C.3     1  UNL1        0.0057
      9 C         140.8065  139.7380  165.8604 C.3     1  UNL1        0.0224
     10 C         141.1416  140.9448  165.0350 C.3     1  UNL1        0.0057
     11 C         141.0945  140.8660  163.5378 C.3     1  UNL1        0.0163
     12 C         140.8536  139.8168  167.3577 C.ar    1  UNL1       -0.0225
     13 C         142.1291  139.5104  168.0851 C.ar    1  UNL1       -0.0043
     14 C         142.1762  139.5892  169.5823 C.ar    1  UNL1       -0.0003
     15 C         140.9477  139.9743  170.3521 C.ar    1  UNL1       -0.0000
     16 C         139.6721  140.2806  169.6246 C.ar    1  UNL1       -0.0003
     17 C         139.6251  140.2019  168.1274 C.ar    1  UNL1       -0.0043
     18 N         141.5203  138.0021  157.8924 N.am    1  UNL1       -0.3009
     19 C         142.8689  138.2952  157.3048 C.2     1  UNL1        0.2426
     20 O         143.7338  139.3623  157.9074 O.2     1  UNL1       -0.2733
     21 H         140.9527  137.3017  157.4969 H       1  UNL1        0.1496
     22 C         143.3527  137.5211  156.1144 C.3     1  UNL1        0.1759
     23 N         143.4583  136.0264  156.1842 N.am    1  UNL1       -0.2931
     24 C         142.2512  135.1761  155.9205 C.2     1  UNL1        0.2462
     25 O         140.9383  135.8204  155.5869 O.2     1  UNL1       -0.2701
     26 H         144.3200  135.6036  156.4031 H       1  UNL1        0.1502
     27 C         142.3568  133.6815  155.9903 C.ar    1  UNL1        0.0533
     28 C         141.4289  132.8255  155.1802 C.ar    1  UNL1        0.0045
     29 C         141.5344  131.3308  155.2498 C.ar    1  UNL1        0.0001
     30 C         142.5678  130.6921  156.1297 C.ar    1  UNL1        0.0039
     31 C         143.4957  131.5481  156.9397 C.ar    1  UNL1        0.0716
     32 C         143.3902  133.0428  156.8700 C.ar    1  UNL1        0.0084
     33 C         144.5292  130.9094  157.8195 C.3     1  UNL1        0.4186
     34 F         145.5626  130.2707  158.6994 F       1  UNL1       -0.1659
     35 F         143.5010  129.9406  158.3239 F       1  UNL1       -0.1659
     36 F         145.5573  131.8783  157.3152 F       1  UNL1       -0.1659
     37 O         139.5889  140.6315  157.8149 O.3     1  UNL1       -0.3531
     38 C         139.2944  143.2123  157.7653 C.3     1  UNL1        0.0346
     39 C         140.0743  141.9865  157.3925 C.3     1  UNL1        0.1423
@<TRIPOS>BOND
     1    38    39    1
     2    39    37    1
     3     1    37    1
     4     1     2    1
     5     2     3    1
     6     6     3    1
     7     6     7    1
     8     7     8    1
     9     8     9    1
    10     9    12    1
    11    12    13   ar
    12    13    14   ar
    13    14    15   ar
    14    15    16   ar
    15    16    17   ar
    16     9    10    1
    17    10    11    1
    18     3     4    1
    19     4     5    1
    20     5    18    1
    21    18    19   am
    22    19    20    2
    23    19    22    1
    24    22    23    1
    25    23    24   am
    26    24    25    2
    27    24    27    1
    28    27    28   ar
    29    28    29   ar
    30    29    30   ar
    31    30    31   ar
    32    31    33    1
    33    33    34    1
    34    33    35    1
    35    33    36    1
    36    31    32   ar
    37     5     1    1
    38    32    27   ar
    39    11     6    1
    40    17    12   ar
    41    18    21    1
    42    23    26    1
@<TRIPOS>MOLECULE
*****
 39 42 0 0 0
SMALL
GASTEIGER

@<TRIPOS>ATOM
      1 C         142.0855  140.9586  159.3162 C.3     1  UNL1        0.1502
      2 C         141.9905  141.5829  160.6768 C.3     1  UNL1        0.1037
      3 N         141.3690  140.5810  161.6041 N.3     1  UNL1       -0.2704
      4 C         141.0798  139.3375  160.8166 C.3     1  UNL1        0.0944
      5 C         141.5227  139.5709  159.4026 C.3     1  UNL1        0.1161
      6 C         141.0862  140.7865  163.0629 C.3     1  UNL1        0.0576
      7 C         139.6955  140.5959  163.5914 C.3     1  UNL1        0.0163
      8 C         139.4128  140.8014  165.0501 C.3     1  UNL1        0.0057
      9 C         140.5209  141.1976  165.9802 C.3     1  UNL1        0.0224
     10 C         141.9116  141.3882  165.4517 C.3     1  UNL1        0.0057
     11 C         142.1943  141.1827  163.9930 C.3     1  UNL1        0.0163
     12 C         140.2381  141.4032  167.4390 C.ar    1  UNL1       -0.0225
     13 C         140.6350  142.6865  168.1063 C.ar    1  UNL1       -0.0043
     14 C         140.3523  142.8921  169.5651 C.ar    1  UNL1       -0.0003
     15 C         139.6726  141.8142  170.3564 C.ar    1  UNL1       -0.0000
     16 C         139.2757  140.5308  169.6890 C.ar    1  UNL1       -0.0003
     17 C         139.5584  140.3253  168.2303 C.ar    1  UNL1       -0.0043
     18 N         141.4206  138.5889  158.2733 N.am    1  UNL1       -0.3009
     19 C         140.1159  138.4027  157.5569 C.2     1  UNL1        0.2426
     20 O         138.9134  139.1985  157.9699 O.2     1  UNL1       -0.2733
     21 H         142.2099  138.0666  158.0022 H       1  UNL1        0.1496
     22 C         140.0139  137.4208  156.4276 C.3     1  UNL1        0.1759
     23 N         140.8921  136.2049  156.4092 N.am    1  UNL1       -0.2931
     24 C         141.1089  135.4557  155.1281 C.2     1  UNL1        0.2462
     25 O         140.4475  135.9222  153.8652 O.2     1  UNL1       -0.2701
     26 H         141.3262  135.8987  157.2381 H       1  UNL1        0.1502
     27 C         141.9872  134.2398  155.1096 C.ar    1  UNL1        0.0533
     28 C         141.8632  133.2420  153.9965 C.ar    1  UNL1        0.0045
     29 C         142.7414  132.0260  153.9779 C.ar    1  UNL1        0.0001
     30 C         143.7436  131.8079  155.0725 C.ar    1  UNL1        0.0039
     31 C         143.8674  132.8058  156.1856 C.ar    1  UNL1        0.0716
     32 C         142.9893  134.0216  156.2041 C.ar    1  UNL1        0.0084
     33 C         144.8696  132.5876  157.2802 C.3     1  UNL1        0.4186
     34 F         145.8718  132.3695  158.3748 F       1  UNL1       -0.1659
     35 F         145.5962  131.5985  156.4178 F       1  UNL1       -0.1659
     36 F         144.1430  133.5767  158.1426 F       1  UNL1       -0.1659
     37 O         142.6451  141.6080  158.0853 O.3     1  UNL1       -0.3531
     38 C         140.3228  142.4023  157.2332 C.3     1  UNL1        0.0346
     39 C         141.8105  142.5796  157.3045 C.3     1  UNL1        0.1423
@<TRIPOS>BOND
     1    38    39    1
     2    39    37    1
     3     1    37    1
     4     1     2    1
     5     2     3    1
     6     6     3    1
     7     6     7    1
     8     7     8    1
     9     8     9    1
    10     9    12    1
    11    12    13   ar
    12    13    14   ar
    13    14    15   ar
    14    15    16   ar
    15    16    17   ar
    16     9    10    1
    17    10    11    1
    18     3     4    1
    19     4     5    1
    20     5    18    1
    21    18    19   am
    22    19    20    2
    23    19    22    1
    24    22    23    1
    25    23    24   am
    26    24    25    2
    27    24    27    1
    28    27    28   ar
    29    28    29   ar
    30    29    30   ar
    31    30    31   ar
    32    31    33    1
    33    33    34    1
    34    33    35    1
    35    33    36    1
    36    31    32   ar
    37     5     1    1
    38    32    27   ar
    39    11     6    1
    40    17    12   ar
    41    18    21    1
    42    23    26    1
@<TRIPOS>MOLECULE
*****
 39 42 0 0 0
SMALL
GASTEIGER

@<TRIPOS>ATOM
      1 C         138.4523  140.2204  158.9015 C.3     1  UNL1        0.1502
      2 C         138.3581  140.8525  160.2585 C.3     1  UNL1        0.1037
      3 N         139.1451  140.0098  161.2180 N.3     1  UNL1       -0.2704
      4 C         139.7257  138.8570  160.4540 C.3     1  UNL1        0.0944
      5 C         139.2976  138.9871  159.0223 C.3     1  UNL1        0.1161
      6 C         139.3206  140.2737  162.6842 C.3     1  UNL1        0.0576
      7 C         138.3116  139.7554  163.6656 C.3     1  UNL1        0.0163
      8 C         138.4872  140.0193  165.1317 C.3     1  UNL1        0.0057
      9 C         139.6717  140.8016  165.6164 C.3     1  UNL1        0.0224
     10 C         140.6807  141.3200  164.6350 C.3     1  UNL1        0.0057
     11 C         140.5051  141.0560  163.1689 C.3     1  UNL1        0.0163
     12 C         139.8472  141.0655  167.0826 C.ar    1  UNL1       -0.0225
     13 C         139.3967  140.0468  168.0872 C.ar    1  UNL1       -0.0043
     14 C         139.5723  140.3107  169.5534 C.ar    1  UNL1       -0.0003
     15 C         140.1982  141.5934  170.0149 C.ar    1  UNL1       -0.0000
     16 C         140.6487  142.6121  169.0102 C.ar    1  UNL1       -0.0003
     17 C         140.4732  142.3482  167.5441 C.ar    1  UNL1       -0.0043
     18 N         139.6525  138.0487  157.9071 N.am    1  UNL1       -0.3009
     19 C         140.9925  138.1486  157.2407 C.2     1  UNL1        0.2426
     20 O         141.9778  139.1868  157.6893 O.2     1  UNL1       -0.2733
     21 H         139.0058  137.3673  157.6126 H       1  UNL1        0.1496
     22 C         141.3474  137.2102  156.1255 C.3     1  UNL1        0.1759
     23 N         141.6168  135.7641  156.4193 N.am    1  UNL1       -0.2931
     24 C         142.9854  135.1947  156.1901 C.2     1  UNL1        0.2462
     25 O         144.0846  136.0712  155.6672 O.2     1  UNL1       -0.2701
     26 H         140.8954  135.1888  156.7624 H       1  UNL1        0.1502
     27 C         143.2549  133.7486  156.4838 C.ar    1  UNL1        0.0533
     28 C         144.3348  133.3689  157.4532 C.ar    1  UNL1        0.0045
     29 C         144.6044  131.9228  157.7471 C.ar    1  UNL1        0.0001
     30 C         143.7942  130.8565  157.0714 C.ar    1  UNL1        0.0039
     31 C         142.7144  131.2363  156.1020 C.ar    1  UNL1        0.0716
     32 C         142.4448  132.6823  155.8083 C.ar    1  UNL1        0.0084
     33 C         141.9041  130.1700  155.4264 C.3     1  UNL1        0.4186
     34 F         141.0939  129.1036  154.7508 F       1  UNL1       -0.1659
     35 F         143.0657  129.2259  155.5234 F       1  UNL1       -0.1659
     36 F         140.7425  131.1140  155.3294 F       1  UNL1       -0.1659
     37 O         137.8135  140.7318  157.6444 O.3     1  UNL1       -0.3531
     38 C         139.9727  142.0552  157.0640 C.3     1  UNL1        0.0346
     39 C         138.6138  141.5520  156.6764 C.3     1  UNL1        0.1423
@<TRIPOS>BOND
     1    38    39    1
     2    39    37    1
     3     1    37    1
     4     1     2    1
     5     2     3    1
     6     6     3    1
     7     6     7    1
     8     7     8    1
     9     8     9    1
    10     9    12    1
    11    12    13   ar
    12    13    14   ar
    13    14    15   ar
    14    15    16   ar
    15    16    17   ar
    16     9    10    1
    17    10    11    1
    18     3     4    1
    19     4     5    1
    20     5    18    1
    21    18    19   am
    22    19    20    2
    23    19    22    1
    24    22    23    1
    25    23    24   am
    26    24    25    2
    27    24    27    1
    28    27    28   ar
    29    28    29   ar
    30    29    30   ar
    31    30    31   ar
    32    31    33    1
    33    33    34    1
    34    33    35    1
    35    33    36    1
    36    31    32   ar
    37     5     1    1
    38    32    27   ar
    39    11     6    1
    40    17    12   ar
    41    18    21    1
    42    23    26    1
