@<TRIPOS>MOLECULE
*****
 24 27 0 0 0
SMALL
GASTEIGER

@<TRIPOS>ATOM
      1 C         138.6800  139.8816  169.2530 C.3     1  UNL1        0.0540
      2 C         139.3558  139.9397  167.9152 C.ar    1  UNL1        0.0805
      3 N         138.9048  139.2385  166.6683 N.ar    1  UNL1       -0.1685
      4 N         139.8716  139.5747  165.5718 N.ar    1  UNL1       -0.2167
      5 C         140.9202  140.4837  166.1410 C.ar    1  UNL1        0.0636
      6 C         142.0834  141.0651  165.3933 C.3     1  UNL1        0.0522
      7 C         140.6015  140.7093  167.5893 C.ar    1  UNL1        0.0289
      8 C         139.8021  139.0874  164.1549 C.ar    1  UNL1        0.1636
      9 N         140.7523  138.0290  163.6782 N.ar    1  UNL1       -0.2051
     10 C         140.6828  137.5417  162.2614 C.ar    1  UNL1        0.2000
     11 N         139.6632  138.1127  161.3210 N.ar    1  UNL1       -0.2271
     12 C         138.7130  139.1710  161.7975 C.ar    1  UNL1        0.0769
     13 C         138.7825  139.6584  163.2145 C.ar    1  UNL1        0.0444
     14 C         137.7224  140.7036  163.3977 C.3     1  UNL1        0.1002
     15 N         136.9977  140.8623  162.0940 N.3     1  UNL1       -0.2886
     16 C         137.6100  139.9151  161.1050 C.3     1  UNL1        0.1153
     17 H         137.0929  141.8212  161.7595 H       1  UNL1        0.1239
     18 C         141.3900  141.5560  168.5441 C.ar    1  UNL1        0.0025
     19 C         142.7896  141.1637  168.9145 C.ar    1  UNL1        0.0024
     20 C         143.5779  142.0103  169.8692 C.ar    1  UNL1        0.0296
     21 C         142.9668  143.2493  170.4536 C.ar    1  UNL1        0.1401
     22 F         143.7552  144.0959  171.4083 F       1  UNL1       -0.2042
     23 C         141.5672  143.6416  170.0831 C.ar    1  UNL1        0.0296
     24 C         140.7788  142.7949  169.1284 C.ar    1  UNL1        0.0024
@<TRIPOS>BOND
     1     1     2    1
     2     2     3   ar
     3     3     4   ar
     4     4     8    1
     5     8     9   ar
     6     9    10   ar
     7    10    11   ar
     8    11    12   ar
     9    12    13   ar
    10    13    14    1
    11    14    15    1
    12    15    16    1
    13     4     5   ar
    14     5     6    1
    15     5     7   ar
    16     7    18    1
    17    18    19   ar
    18    19    20   ar
    19    20    21   ar
    20    21    22    1
    21    21    23   ar
    22    23    24   ar
    23     7     2   ar
    24    24    18   ar
    25    13     8   ar
    26    16    12    1
    27    15    17    1
@<TRIPOS>MOLECULE
*****
 24 27 0 0 0
SMALL
GASTEIGER

@<TRIPOS>ATOM
      1 C         144.6353  139.8604  164.7192 C.3     1  UNL1        0.0540
      2 C         143.3830  140.6590  164.5093 C.ar    1  UNL1        0.0805
      3 N         142.8457  141.1253  163.1887 N.ar    1  UNL1       -0.1685
      4 N         141.5788  141.8860  163.4464 N.ar    1  UNL1       -0.2167
      5 C         141.3331  141.8898  164.9261 C.ar    1  UNL1        0.0636
      6 C         140.1756  142.5381  165.6261 C.3     1  UNL1        0.0522
      7 C         142.4482  141.1315  165.5830 C.ar    1  UNL1        0.0289
      8 C         140.7100  142.5298  162.4068 C.ar    1  UNL1        0.1636
      9 N         139.9530  141.6791  161.4303 N.ar    1  UNL1       -0.2051
     10 C         139.0843  142.3229  160.3908 C.ar    1  UNL1        0.2000
     11 N         138.9723  143.8174  160.3276 N.ar    1  UNL1       -0.2271
     12 C         139.7292  144.6681  161.3041 C.ar    1  UNL1        0.0769
     13 C         140.5980  144.0243  162.3436 C.ar    1  UNL1        0.0444
     14 C         141.2207  145.1131  163.1664 C.3     1  UNL1        0.1002
     15 N         140.7367  146.4297  162.6353 N.3     1  UNL1       -0.2886
     16 C         139.8149  146.1547  161.4843 C.3     1  UNL1        0.1153
     17 H         141.5296  146.9876  162.3181 H       1  UNL1        0.1239
     18 C         142.6015  140.8883  167.0553 C.ar    1  UNL1        0.0025
     19 C         143.0322  142.0053  167.9591 C.ar    1  UNL1        0.0024
     20 C         143.1855  141.7621  169.4312 C.ar    1  UNL1        0.0296
     21 C         142.9081  140.4019  169.9996 C.ar    1  UNL1        0.1401
     22 F         143.0614  140.1587  171.4718 F       1  UNL1       -0.2042
     23 C         142.4774  139.2850  169.0958 C.ar    1  UNL1        0.0296
     24 C         142.3242  139.5282  167.6236 C.ar    1  UNL1        0.0024
@<TRIPOS>BOND
     1     1     2    1
     2     2     3   ar
     3     3     4   ar
     4     4     8    1
     5     8     9   ar
     6     9    10   ar
     7    10    11   ar
     8    11    12   ar
     9    12    13   ar
    10    13    14    1
    11    14    15    1
    12    15    16    1
    13     4     5   ar
    14     5     6    1
    15     5     7   ar
    16     7    18    1
    17    18    19   ar
    18    19    20   ar
    19    20    21   ar
    20    21    22    1
    21    21    23   ar
    22    23    24   ar
    23     7     2   ar
    24    24    18   ar
    25    13     8   ar
    26    16    12    1
    27    15    17    1
@<TRIPOS>MOLECULE
*****
 24 27 0 0 0
SMALL
GASTEIGER

@<TRIPOS>ATOM
      1 C         138.0408  139.4914  165.6641 C.3     1  UNL1        0.0540
      2 C         139.4504  139.7100  165.1999 C.ar    1  UNL1        0.0805
      3 N         140.0248  139.2675  163.8868 N.ar    1  UNL1       -0.1685
      4 N         141.4624  139.6935  163.8428 N.ar    1  UNL1       -0.2167
      5 C         141.7765  140.3992  165.1286 C.ar    1  UNL1        0.0636
      6 C         143.1014  140.9908  165.5089 C.3     1  UNL1        0.0522
      7 C         140.5329  140.4094  165.9674 C.ar    1  UNL1        0.0289
      8 C         142.4183  139.4555  162.7115 C.ar    1  UNL1        0.1636
      9 N         142.9638  138.0797  162.4673 N.ar    1  UNL1       -0.2051
     10 C         143.9196  137.8417  161.3361 C.ar    1  UNL1        0.2000
     11 N         144.3299  138.9795  160.4490 N.ar    1  UNL1       -0.2271
     12 C         143.7845  140.3553  160.6931 C.ar    1  UNL1        0.0769
     13 C         142.8286  140.5933  161.8243 C.ar    1  UNL1        0.0444
     14 C         142.4591  142.0471  161.8209 C.3     1  UNL1        0.1002
     15 N         143.1865  142.7075  160.6875 N.3     1  UNL1       -0.2886
     16 C         144.0057  141.6620  159.9904 C.3     1  UNL1        0.1153
     17 H         143.7963  143.4413  161.0483 H       1  UNL1        0.1239
     18 C         140.3960  141.0130  167.3337 C.ar    1  UNL1        0.0025
     19 C         140.5402  142.4947  167.5170 C.ar    1  UNL1        0.0024
     20 C         140.4033  143.0983  168.8833 C.ar    1  UNL1        0.0296
     21 C         140.1222  142.2201  170.0665 C.ar    1  UNL1        0.1401
     22 F         139.9854  142.8236  171.4328 F       1  UNL1       -0.2042
     23 C         139.9781  140.7383  169.8832 C.ar    1  UNL1        0.0296
     24 C         140.1150  140.1348  168.5169 C.ar    1  UNL1        0.0024
@<TRIPOS>BOND
     1     1     2    1
     2     2     3   ar
     3     3     4   ar
     4     4     8    1
     5     8     9   ar
     6     9    10   ar
     7    10    11   ar
     8    11    12   ar
     9    12    13   ar
    10    13    14    1
    11    14    15    1
    12    15    16    1
    13     4     5   ar
    14     5     6    1
    15     5     7   ar
    16     7    18    1
    17    18    19   ar
    18    19    20   ar
    19    20    21   ar
    20    21    22    1
    21    21    23   ar
    22    23    24   ar
    23     7     2   ar
    24    24    18   ar
    25    13     8   ar
    26    16    12    1
    27    15    17    1
@<TRIPOS>MOLECULE
*****
 24 27 0 0 0
SMALL
GASTEIGER

@<TRIPOS>ATOM
      1 C         138.3035  144.9128  165.6103 C.3     1  UNL1        0.0540
      2 C         138.7255  144.1097  164.4157 C.ar    1  UNL1        0.0805
      3 N         138.5574  144.5103  162.9800 N.ar    1  UNL1       -0.1685
      4 N         139.1177  143.4132  162.1241 N.ar    1  UNL1       -0.2167
      5 C         139.6321  142.3346  163.0308 C.ar    1  UNL1        0.0636
      6 C         140.2758  141.0510  162.5973 C.3     1  UNL1        0.0522
      7 C         139.3897  142.7651  164.4471 C.ar    1  UNL1        0.0289
      8 C         139.1568  143.3974  160.6246 C.ar    1  UNL1        0.1636
      9 N         138.2031  142.5292  159.8586 N.ar    1  UNL1       -0.2051
     10 C         138.2422  142.5133  158.3593 C.ar    1  UNL1        0.2000
     11 N         139.2349  143.3657  157.6258 N.ar    1  UNL1       -0.2271
     12 C         140.1886  144.2339  158.3918 C.ar    1  UNL1        0.0769
     13 C         140.1495  144.2497  159.8912 C.ar    1  UNL1        0.0444
     14 C         141.2062  145.1994  160.3724 C.3     1  UNL1        0.1002
     15 N         141.8983  145.7704  159.1704 N.3     1  UNL1       -0.2886
     16 C         141.2694  145.1737  157.9463 C.3     1  UNL1        0.1153
     17 H         142.8907  145.5365  159.1987 H       1  UNL1        0.1239
     18 C         139.7485  141.9875  165.6786 C.ar    1  UNL1        0.0025
     19 C         139.0608  140.6870  165.9714 C.ar    1  UNL1        0.0024
     20 C         139.4196  139.9095  167.2028 C.ar    1  UNL1        0.0296
     21 C         140.4662  140.4323  168.1416 C.ar    1  UNL1        0.1401
     22 F         140.8251  139.6548  169.3730 F       1  UNL1       -0.2042
     23 C         141.1540  141.7328  167.8488 C.ar    1  UNL1        0.0296
     24 C         140.7951  142.5104  166.6173 C.ar    1  UNL1        0.0024
@<TRIPOS>BOND
     1     1     2    1
     2     2     3   ar
     3     3     4   ar
     4     4     8    1
     5     8     9   ar
     6     9    10   ar
     7    10    11   ar
     8    11    12   ar
     9    12    13   ar
    10    13    14    1
    11    14    15    1
    12    15    16    1
    13     4     5   ar
    14     5     6    1
    15     5     7   ar
    16     7    18    1
    17    18    19   ar
    18    19    20   ar
    19    20    21   ar
    20    21    22    1
    21    21    23   ar
    22    23    24   ar
    23     7     2   ar
    24    24    18   ar
    25    13     8   ar
    26    16    12    1
    27    15    17    1
@<TRIPOS>MOLECULE
*****
 24 27 0 0 0
SMALL
GASTEIGER

@<TRIPOS>ATOM
      1 C         140.0786  137.9344  164.6456 C.3     1  UNL1        0.0540
      2 C         140.6225  139.3007  164.3501 C.ar    1  UNL1        0.0805
      3 N         140.9012  139.8630  162.9877 N.ar    1  UNL1       -0.1685
      4 N         141.4341  141.2545  163.1607 N.ar    1  UNL1       -0.2167
      5 C         141.4848  141.5521  164.6300 C.ar    1  UNL1        0.0636
      6 C         141.9546  142.8324  165.2546 C.3     1  UNL1        0.0522
      7 C         140.9832  140.3446  165.3650 C.ar    1  UNL1        0.0289
      8 C         141.8444  142.1850  162.0580 C.ar    1  UNL1        0.1636
      9 N         143.1192  141.9409  161.3061 N.ar    1  UNL1       -0.2051
     10 C         143.5295  142.8714  160.2035 C.ar    1  UNL1        0.2000
     11 N         142.6651  144.0459  159.8527 N.ar    1  UNL1       -0.2271
     12 C         141.3903  144.2900  160.6045 C.ar    1  UNL1        0.0769
     13 C         140.9799  143.3595  161.7072 C.ar    1  UNL1        0.0444
     14 C         139.6785  143.8510  162.2682 C.3     1  UNL1        0.1002
     15 N         139.2845  145.0851  161.5122 N.3     1  UNL1       -0.2886
     16 C         140.3424  145.3565  160.4840 C.3     1  UNL1        0.1153
     17 H         139.2136  145.8756  162.1529 H       1  UNL1        0.1239
     18 C         140.8633  140.2054  166.8538 C.ar    1  UNL1        0.0025
     19 C         142.0723  139.8691  167.6755 C.ar    1  UNL1        0.0024
     20 C         141.9524  139.7299  169.1641 C.ar    1  UNL1        0.0296
     21 C         140.6234  139.9272  169.8312 C.ar    1  UNL1        0.1401
     22 F         140.5035  139.7881  171.3199 F       1  UNL1       -0.2042
     23 C         139.4144  140.2636  169.0096 C.ar    1  UNL1        0.0296
     24 C         139.5344  140.4027  167.5209 C.ar    1  UNL1        0.0024
@<TRIPOS>BOND
     1     1     2    1
     2     2     3   ar
     3     3     4   ar
     4     4     8    1
     5     8     9   ar
     6     9    10   ar
     7    10    11   ar
     8    11    12   ar
     9    12    13   ar
    10    13    14    1
    11    14    15    1
    12    15    16    1
    13     4     5   ar
    14     5     6    1
    15     5     7   ar
    16     7    18    1
    17    18    19   ar
    18    19    20   ar
    19    20    21   ar
    20    21    22    1
    21    21    23   ar
    22    23    24   ar
    23     7     2   ar
    24    24    18   ar
    25    13     8   ar
    26    16    12    1
    27    15    17    1
@<TRIPOS>MOLECULE
*****
 24 27 0 0 0
SMALL
GASTEIGER

@<TRIPOS>ATOM
      1 C         138.0279  139.5048  165.5766 C.3     1  UNL1        0.0540
      2 C         138.8600  140.6453  165.0698 C.ar    1  UNL1        0.0805
      3 N         138.5439  141.5089  163.8848 N.ar    1  UNL1       -0.1685
      4 N         139.6428  142.5198  163.7417 N.ar    1  UNL1       -0.2167
      5 C         140.6381  142.2810  164.8382 C.ar    1  UNL1        0.0636
      6 C         141.8962  143.0633  165.0728 C.3     1  UNL1        0.0522
      7 C         140.1542  141.1225  165.6590 C.ar    1  UNL1        0.0289
      8 C         139.7310  143.5830  162.6872 C.ar    1  UNL1        0.1636
      9 N         139.2752  144.9796  162.9902 N.ar    1  UNL1       -0.2051
     10 C         139.3634  146.0427  161.9358 C.ar    1  UNL1        0.2000
     11 N         139.9074  145.7094  160.5783 N.ar    1  UNL1       -0.2271
     12 C         140.3632  144.3128  160.2752 C.ar    1  UNL1        0.0769
     13 C         140.2750  143.2496  161.3296 C.ar    1  UNL1        0.0444
     14 C         140.7967  141.9712  160.7437 C.3     1  UNL1        0.1002
     15 N         141.2074  142.2442  159.3271 N.3     1  UNL1       -0.2886
     16 C         140.9394  143.6914  159.0375 C.3     1  UNL1        0.1153
     17 H         140.6669  141.6581  158.6909 H       1  UNL1        0.1239
     18 C         140.8437  140.5429  166.8585 C.ar    1  UNL1        0.0025
     19 C         142.1162  139.7667  166.6901 C.ar    1  UNL1        0.0024
     20 C         142.8056  139.1872  167.8895 C.ar    1  UNL1        0.0296
     21 C         142.2225  139.3839  169.2576 C.ar    1  UNL1        0.1401
     22 F         142.9119  138.8043  170.4570 F       1  UNL1       -0.2042
     23 C         140.9501  140.1600  169.4260 C.ar    1  UNL1        0.0296
     24 C         140.2607  140.7395  168.2265 C.ar    1  UNL1        0.0024
@<TRIPOS>BOND
     1     1     2    1
     2     2     3   ar
     3     3     4   ar
     4     4     8    1
     5     8     9   ar
     6     9    10   ar
     7    10    11   ar
     8    11    12   ar
     9    12    13   ar
    10    13    14    1
    11    14    15    1
    12    15    16    1
    13     4     5   ar
    14     5     6    1
    15     5     7   ar
    16     7    18    1
    17    18    19   ar
    18    19    20   ar
    19    20    21   ar
    20    21    22    1
    21    21    23   ar
    22    23    24   ar
    23     7     2   ar
    24    24    18   ar
    25    13     8   ar
    26    16    12    1
    27    15    17    1
@<TRIPOS>MOLECULE
*****
 24 27 0 0 0
SMALL
GASTEIGER

@<TRIPOS>ATOM
      1 C         144.8815  140.2318  164.3837 C.3     1  UNL1        0.0540
      2 C         143.6831  141.1036  164.1517 C.ar    1  UNL1        0.0805
      3 N         143.2445  141.6665  162.8323 N.ar    1  UNL1       -0.1685
      4 N         142.0032  142.4763  163.0636 N.ar    1  UNL1       -0.2167
      5 C         141.6746  142.4138  164.5258 C.ar    1  UNL1        0.0636
      6 C         140.5120  143.0823  165.1977 C.3     1  UNL1        0.0522
      7 C         142.7129  141.5654  165.1983 C.ar    1  UNL1        0.0289
      8 C         141.2267  143.2184  162.0165 C.ar    1  UNL1        0.1636
      9 N         141.4395  144.6912  161.8279 N.ar    1  UNL1       -0.2051
     10 C         140.6631  145.4333  160.7809 C.ar    1  UNL1        0.2000
     11 N         139.6737  144.7026  159.9223 N.ar    1  UNL1       -0.2271
     12 C         139.4608  143.2298  160.1108 C.ar    1  UNL1        0.0769
     13 C         140.2373  142.4877  161.1579 C.ar    1  UNL1        0.0444
     14 C         139.8171  141.0484  161.1135 C.3     1  UNL1        0.1002
     15 N         138.7809  140.9010  160.0390 N.3     1  UNL1       -0.2886
     16 C         138.5607  142.2492  159.4192 C.3     1  UNL1        0.1153
     17 H         137.9091  140.5594  160.4434 H       1  UNL1        0.1239
     18 C         142.7707  141.2366  166.6607 C.ar    1  UNL1        0.0025
     19 C         142.4572  139.8469  167.1300 C.ar    1  UNL1        0.0024
     20 C         142.5150  139.5181  168.5923 C.ar    1  UNL1        0.0296
     21 C         142.8865  140.5792  169.5855 C.ar    1  UNL1        0.1401
     22 F         142.9443  140.2505  171.0478 F       1  UNL1       -0.2042
     23 C         143.2000  141.9689  169.1162 C.ar    1  UNL1        0.0296
     24 C         143.1422  142.2976  167.6538 C.ar    1  UNL1        0.0024
@<TRIPOS>BOND
     1     1     2    1
     2     2     3   ar
     3     3     4   ar
     4     4     8    1
     5     8     9   ar
     6     9    10   ar
     7    10    11   ar
     8    11    12   ar
     9    12    13   ar
    10    13    14    1
    11    14    15    1
    12    15    16    1
    13     4     5   ar
    14     5     6    1
    15     5     7   ar
    16     7    18    1
    17    18    19   ar
    18    19    20   ar
    19    20    21   ar
    20    21    22    1
    21    21    23   ar
    22    23    24   ar
    23     7     2   ar
    24    24    18   ar
    25    13     8   ar
    26    16    12    1
    27    15    17    1
@<TRIPOS>MOLECULE
*****
 24 27 0 0 0
SMALL
GASTEIGER

@<TRIPOS>ATOM
      1 C         143.9136  143.7798  164.1393 C.3     1  UNL1        0.0540
      2 C         142.6331  143.2737  164.7344 C.ar    1  UNL1        0.0805
      3 N         142.4951  142.5388  166.0348 N.ar    1  UNL1       -0.1685
      4 N         141.0425  142.2245  166.2376 N.ar    1  UNL1       -0.2167
      5 C         140.2827  142.7651  165.0627 C.ar    1  UNL1        0.0636
      6 C         138.8002  142.6734  164.8535 C.3     1  UNL1        0.0522
      7 C         141.2658  143.4135  164.1337 C.ar    1  UNL1        0.0289
      8 C         140.4530  141.4973  167.4097 C.ar    1  UNL1        0.1636
      9 N         139.4947  140.3653  167.1852 N.ar    1  UNL1       -0.2051
     10 C         138.9052  139.6381  168.3572 C.ar    1  UNL1        0.2000
     11 N         139.2740  140.0427  169.7537 N.ar    1  UNL1       -0.2271
     12 C         140.2323  141.1746  169.9782 C.ar    1  UNL1        0.0769
     13 C         140.8218  141.9019  168.8062 C.ar    1  UNL1        0.0444
     14 C         141.7327  142.9704  169.3341 C.3     1  UNL1        0.1002
     15 N         141.7061  142.9034  170.8323 N.3     1  UNL1       -0.2886
     16 C         140.7789  141.7936  171.2304 C.3     1  UNL1        0.1153
     17 H         141.3701  143.7883  171.2125 H       1  UNL1        0.1239
     18 C         140.9388  144.0841  162.8323 C.ar    1  UNL1        0.0025
     19 C         141.3006  143.4222  161.5358 C.ar    1  UNL1        0.0024
     20 C         140.9737  144.0927  160.2345 C.ar    1  UNL1        0.0296
     21 C         140.2849  145.4253  160.2297 C.ar    1  UNL1        0.1401
     22 F         139.9580  146.0959  158.9284 F       1  UNL1       -0.2042
     23 C         139.9231  146.0872  161.5262 C.ar    1  UNL1        0.0296
     24 C         140.2501  145.4166  162.8275 C.ar    1  UNL1        0.0024
@<TRIPOS>BOND
     1     1     2    1
     2     2     3   ar
     3     3     4   ar
     4     4     8    1
     5     8     9   ar
     6     9    10   ar
     7    10    11   ar
     8    11    12   ar
     9    12    13   ar
    10    13    14    1
    11    14    15    1
    12    15    16    1
    13     4     5   ar
    14     5     6    1
    15     5     7   ar
    16     7    18    1
    17    18    19   ar
    18    19    20   ar
    19    20    21   ar
    20    21    22    1
    21    21    23   ar
    22    23    24   ar
    23     7     2   ar
    24    24    18   ar
    25    13     8   ar
    26    16    12    1
    27    15    17    1
@<TRIPOS>MOLECULE
*****
 24 27 0 0 0
SMALL
GASTEIGER

@<TRIPOS>ATOM
      1 C         144.8532  143.7326  165.8394 C.3     1  UNL1        0.0540
      2 C         143.9980  143.3652  164.6631 C.ar    1  UNL1        0.0805
      3 N         144.1661  143.8673  163.2597 N.ar    1  UNL1       -0.1685
      4 N         143.0965  143.2436  162.4130 N.ar    1  UNL1       -0.2167
      5 C         142.2673  142.3560  163.2931 C.ar    1  UNL1        0.0636
      6 C         141.0880  141.5371  162.8588 C.3     1  UNL1        0.0522
      7 C         142.8245  142.4312  164.6837 C.ar    1  UNL1        0.0289
      8 C         142.8919  143.4681  160.9440 C.ar    1  UNL1        0.1636
      9 N         143.8213  142.8341  159.9518 N.ar    1  UNL1       -0.2051
     10 C         143.6168  143.0585  158.4830 C.ar    1  UNL1        0.2000
     11 N         142.4829  143.9168  158.0061 N.ar    1  UNL1       -0.2271
     12 C         141.5535  144.5508  158.9982 C.ar    1  UNL1        0.0769
     13 C         141.7580  144.3264  160.4671 C.ar    1  UNL1        0.0444
     14 C         140.6883  145.0765  161.2040 C.3     1  UNL1        0.1002
     15 N         139.8226  145.7645  160.1904 N.3     1  UNL1       -0.2886
     16 C         140.3574  145.4396  158.8271 C.3     1  UNL1        0.1153
     17 H         139.8481  146.7730  160.3409 H       1  UNL1        0.1239
     18 C         142.3001  141.7005  165.8843 C.ar    1  UNL1        0.0025
     19 C         141.2052  142.3060  166.7117 C.ar    1  UNL1        0.0024
     20 C         140.6809  141.5753  167.9121 C.ar    1  UNL1        0.0296
     21 C         141.2514  140.2391  168.2852 C.ar    1  UNL1        0.1401
     22 F         140.7271  139.5084  169.4856 F       1  UNL1       -0.2042
     23 C         142.3463  139.6336  167.4577 C.ar    1  UNL1        0.0296
     24 C         142.8706  140.3644  166.2573 C.ar    1  UNL1        0.0024
@<TRIPOS>BOND
     1     1     2    1
     2     2     3   ar
     3     3     4   ar
     4     4     8    1
     5     8     9   ar
     6     9    10   ar
     7    10    11   ar
     8    11    12   ar
     9    12    13   ar
    10    13    14    1
    11    14    15    1
    12    15    16    1
    13     4     5   ar
    14     5     6    1
    15     5     7   ar
    16     7    18    1
    17    18    19   ar
    18    19    20   ar
    19    20    21   ar
    20    21    22    1
    21    21    23   ar
    22    23    24   ar
    23     7     2   ar
    24    24    18   ar
    25    13     8   ar
    26    16    12    1
    27    15    17    1
