@<TRIPOS>MOLECULE
*****
 34 37 0 0 0
SMALL
GASTEIGER

@<TRIPOS>ATOM
      1 N         143.3447  141.2072  161.4409 N.3     1  UNL1       -0.2673
      2 C         142.2014  142.1107  161.7966 C.3     1  UNL1        0.1035
      3 C         141.9448  142.4664  163.2310 C.3     1  UNL1        0.1470
      4 C         141.6882  142.8221  164.6655 C.3     1  UNL1        0.1037
      5 N         142.5748  142.2743  165.7442 N.3     1  UNL1       -0.2647
      6 C         143.7181  141.3706  165.3885 C.3     1  UNL1        0.1037
      7 C         143.9747  141.0150  163.9541 C.3     1  UNL1        0.1470
      8 C         144.2313  140.6593  162.5197 C.3     1  UNL1        0.1035
      9 O         142.8315  141.9185  164.3097 O.3     1  UNL1       -0.3530
     10 C         143.6013  140.8514  160.0064 C.3     1  UNL1        0.0916
     11 C         143.8141  139.4190  159.6154 C.3     1  UNL1        0.1131
     12 C         142.3355  137.7219  158.3179 C.3     1  UNL1        0.1149
     13 N         142.6520  138.4712  159.5781 N.3     1  UNL1       -0.1526
     14 S         141.8065  138.2728  160.8011 S.O2    1  UNL1        0.0634
     15 O         142.9767  137.6583  161.5104 O.2     1  UNL1       -0.1528
     16 O         140.6363  138.8873  160.0919 O.2     1  UNL1       -0.1528
     17 C         140.9610  138.0744  162.0241 C.ar    1  UNL1        0.1222
     18 C         139.4690  137.9848  161.8980 C.ar    1  UNL1        0.0206
     19 C         138.6235  137.7864  163.1210 C.ar    1  UNL1        0.0116
     20 C         139.2700  137.6775  164.4702 C.ar    1  UNL1        0.0685
     21 C         140.7620  137.7670  164.5963 C.ar    1  UNL1        0.0116
     22 C         141.6076  137.9655  163.3733 C.ar    1  UNL1        0.0206
     23 C         138.4245  137.4791  165.6932 C.1     1  UNL1        0.1004
     24 N         137.5790  137.2806  166.9162 N.1     1  UNL1       -0.1908
     25 C         142.3182  142.6299  167.1786 C.3     1  UNL1        0.1015
     26 C         141.2439  141.9189  167.9471 C.ar    1  UNL1        0.0214
     27 C         140.6486  140.6525  167.4070 C.ar    1  UNL1       -0.0000
     28 C         139.5743  139.9414  168.1753 C.ar    1  UNL1        0.0101
     29 C         139.0954  140.4969  169.4838 C.ar    1  UNL1        0.0707
     30 C         139.6907  141.7634  170.0238 C.ar    1  UNL1        0.0396
     31 C         140.7649  142.4744  169.2555 C.ar    1  UNL1        0.1381
     32 F         141.3602  143.7408  169.7956 F       1  UNL1       -0.2044
     33 C         138.0211  139.7859  170.2522 C.1     1  UNL1        0.1005
     34 N         136.9468  139.0749  171.0205 N.1     1  UNL1       -0.1908
@<TRIPOS>BOND
     1    12    13    1
     2    13    11    1
     3    11    10    1
     4    10     1    1
     5     1     2    1
     6     2     3    1
     7     3     4    1
     8     4     5    1
     9     5    25    1
    10    25    26    1
    11    26    27   ar
    12    27    28   ar
    13    28    29   ar
    14    29    33    1
    15    33    34    3
    16    29    30   ar
    17    30    31   ar
    18    31    32    1
    19     5     6    1
    20     6     7    1
    21     7     8    1
    22     7     9    1
    23    13    14    1
    24    14    15    2
    25    14    16    2
    26    14    17    1
    27    17    18   ar
    28    18    19   ar
    29    19    20   ar
    30    20    23    1
    31    23    24    3
    32    20    21   ar
    33    21    22   ar
    34     8     1    1
    35    22    17   ar
    36     9     3    1
    37    31    26   ar
@<TRIPOS>MOLECULE
*****
 34 37 0 0 0
SMALL
GASTEIGER

@<TRIPOS>ATOM
      1 N         143.4866  141.3060  160.6919 N.3     1  UNL1       -0.2673
      2 C         144.4982  140.6654  161.5954 C.3     1  UNL1        0.1035
      3 C         144.4565  140.9262  163.0720 C.3     1  UNL1        0.1470
      4 C         144.4148  141.1869  164.5486 C.3     1  UNL1        0.1037
      5 N         143.3615  142.0882  165.1216 N.3     1  UNL1       -0.2647
      6 C         142.3499  142.7287  164.2180 C.3     1  UNL1        0.1037
      7 C         142.3916  142.4680  162.7414 C.3     1  UNL1        0.1470
      8 C         142.4334  142.2072  161.2649 C.3     1  UNL1        0.1035
      9 O         143.4032  141.8274  163.6450 O.3     1  UNL1       -0.3530
     10 C         143.5283  141.0452  159.2152 C.3     1  UNL1        0.0916
     11 C         142.4967  140.1605  158.5805 C.3     1  UNL1        0.1131
     12 C         142.6751  137.5727  158.4335 C.3     1  UNL1        0.1149
     13 N         142.2152  138.8041  159.1560 N.3     1  UNL1       -0.1526
     14 S         141.4739  138.6793  160.4541 S.O2    1  UNL1        0.0634
     15 O         140.4017  139.5875  159.9291 O.2     1  UNL1       -0.1528
     16 O         142.5461  137.7712  160.9791 O.2     1  UNL1       -0.1528
     17 C         140.7326  138.5546  161.7521 C.ar    1  UNL1        0.1222
     18 C         139.3495  137.9745  161.7731 C.ar    1  UNL1        0.0206
     19 C         138.6082  137.8497  163.0712 C.ar    1  UNL1        0.0116
     20 C         139.2500  138.3050  164.3482 C.ar    1  UNL1        0.0685
     21 C         140.6332  138.8850  164.3272 C.ar    1  UNL1        0.0116
     22 C         141.3745  139.0098  163.0291 C.ar    1  UNL1        0.0206
     23 C         138.5087  138.1802  165.6462 C.1     1  UNL1        0.1004
     24 N         137.7674  138.0554  166.9443 N.1     1  UNL1       -0.1908
     25 C         143.3198  142.3489  166.5981 C.3     1  UNL1        0.1015
     26 C         142.1866  141.8139  167.4225 C.ar    1  UNL1        0.0214
     27 C         141.2837  142.7586  168.1590 C.ar    1  UNL1       -0.0000
     28 C         140.1504  142.2237  168.9834 C.ar    1  UNL1        0.0101
     29 C         139.9201  140.7441  169.0713 C.ar    1  UNL1        0.0707
     30 C         140.8230  139.7994  168.3348 C.ar    1  UNL1        0.0396
     31 C         141.9563  140.3343  167.5105 C.ar    1  UNL1        0.1381
     32 F         142.8592  139.3897  166.7740 F       1  UNL1       -0.2044
     33 C         138.7869  140.2091  169.8957 C.1     1  UNL1        0.1005
     34 N         137.6536  139.6742  170.7200 N.1     1  UNL1       -0.1908
@<TRIPOS>BOND
     1    12    13    1
     2    13    11    1
     3    11    10    1
     4    10     1    1
     5     1     2    1
     6     2     3    1
     7     3     4    1
     8     4     5    1
     9     5    25    1
    10    25    26    1
    11    26    27   ar
    12    27    28   ar
    13    28    29   ar
    14    29    33    1
    15    33    34    3
    16    29    30   ar
    17    30    31   ar
    18    31    32    1
    19     5     6    1
    20     6     7    1
    21     7     8    1
    22     7     9    1
    23    13    14    1
    24    14    15    2
    25    14    16    2
    26    14    17    1
    27    17    18   ar
    28    18    19   ar
    29    19    20   ar
    30    20    23    1
    31    23    24    3
    32    20    21   ar
    33    21    22   ar
    34     8     1    1
    35    22    17   ar
    36     9     3    1
    37    31    26   ar
@<TRIPOS>MOLECULE
*****
 34 37 0 0 0
SMALL
GASTEIGER

@<TRIPOS>ATOM
      1 N         143.2812  139.4628  160.9747 N.3     1  UNL1       -0.2673
      2 C         144.3615  140.0765  161.8151 C.3     1  UNL1        0.1035
      3 C         144.3478  139.8948  163.3039 C.3     1  UNL1        0.1470
      4 C         144.3341  139.7131  164.7929 C.3     1  UNL1        0.1037
      5 N         143.2402  138.9177  165.4414 N.3     1  UNL1       -0.2647
      6 C         142.1599  138.3039  164.6009 C.3     1  UNL1        0.1037
      7 C         142.1736  138.4856  163.1120 C.3     1  UNL1        0.1470
      8 C         142.1873  138.6673  161.6232 C.3     1  UNL1        0.1035
      9 O         143.2538  139.0994  163.9524 O.3     1  UNL1       -0.3530
     10 C         143.2949  139.6445  159.4858 C.3     1  UNL1        0.0916
     11 C         142.4629  140.7207  158.8539 C.3     1  UNL1        0.1131
     12 C         143.5964  143.0328  158.5081 C.3     1  UNL1        0.1149
     13 N         142.6483  142.1512  159.2656 N.3     1  UNL1       -0.1526
     14 S         141.8857  142.7000  160.4349 S.O2    1  UNL1        0.0634
     15 O         143.0046  143.6591  160.7145 O.2     1  UNL1       -0.1528
     16 O         140.7668  141.7409  160.1552 O.2     1  UNL1       -0.1528
     17 C         141.1231  143.2488  161.6042 C.ar    1  UNL1        0.1222
     18 C         140.1139  144.3389  161.3965 C.ar    1  UNL1        0.0206
     19 C         139.3512  144.8876  162.5658 C.ar    1  UNL1        0.0116
     20 C         139.5978  144.3463  163.9427 C.ar    1  UNL1        0.0685
     21 C         140.6070  143.2562  164.1505 C.ar    1  UNL1        0.0116
     22 C         141.3697  142.7074  162.9812 C.ar    1  UNL1        0.0206
     23 C         138.8352  144.8951  165.1120 C.1     1  UNL1        0.1004
     24 N         138.0725  145.4439  166.2813 N.1     1  UNL1       -0.1908
     25 C         143.2265  138.7360  166.9302 C.3     1  UNL1        0.1015
     26 C         142.4256  139.6666  167.7921 C.ar    1  UNL1        0.0214
     27 C         141.8154  140.9011  167.1974 C.ar    1  UNL1       -0.0000
     28 C         141.0146  141.8317  168.0591 C.ar    1  UNL1        0.0101
     29 C         140.8239  141.5277  169.5155 C.ar    1  UNL1        0.0707
     30 C         141.4340  140.2932  170.1102 C.ar    1  UNL1        0.0396
     31 C         142.2349  139.3626  169.2485 C.ar    1  UNL1        0.1381
     32 F         142.8450  138.1281  169.8431 F       1  UNL1       -0.2044
     33 C         140.0230  142.4583  170.3774 C.1     1  UNL1        0.1005
     34 N         139.2221  143.3888  171.2392 N.1     1  UNL1       -0.1908
@<TRIPOS>BOND
     1    12    13    1
     2    13    11    1
     3    11    10    1
     4    10     1    1
     5     1     2    1
     6     2     3    1
     7     3     4    1
     8     4     5    1
     9     5    25    1
    10    25    26    1
    11    26    27   ar
    12    27    28   ar
    13    28    29   ar
    14    29    33    1
    15    33    34    3
    16    29    30   ar
    17    30    31   ar
    18    31    32    1
    19     5     6    1
    20     6     7    1
    21     7     8    1
    22     7     9    1
    23    13    14    1
    24    14    15    2
    25    14    16    2
    26    14    17    1
    27    17    18   ar
    28    18    19   ar
    29    19    20   ar
    30    20    23    1
    31    23    24    3
    32    20    21   ar
    33    21    22   ar
    34     8     1    1
    35    22    17   ar
    36     9     3    1
    37    31    26   ar
@<TRIPOS>MOLECULE
*****
 34 37 0 0 0
SMALL
GASTEIGER

@<TRIPOS>ATOM
      1 N         140.4375  138.5428  160.5110 N.3     1  UNL1       -0.2673
      2 C         139.5528  138.0272  161.6071 C.3     1  UNL1        0.1035
      3 C         139.9921  138.1324  163.0374 C.3     1  UNL1        0.1470
      4 C         140.4314  138.2376  164.4679 C.3     1  UNL1        0.1037
      5 N         141.7553  138.8585  164.8021 N.3     1  UNL1       -0.2647
      6 C         142.6400  139.3742  163.7059 C.3     1  UNL1        0.1037
      7 C         142.2007  139.2689  162.2756 C.3     1  UNL1        0.1470
      8 C         141.7614  139.1637  160.8452 C.3     1  UNL1        0.1035
      9 O         141.3160  138.7533  163.3717 O.3     1  UNL1       -0.3530
     10 C         139.9982  138.4376  159.0806 C.3     1  UNL1        0.0916
     11 C         139.8001  139.6798  158.2635 C.3     1  UNL1        0.1131
     12 C         137.5167  140.6845  157.5377 C.3     1  UNL1        0.1149
     13 N         138.6306  140.5786  158.5367 N.3     1  UNL1       -0.1526
     14 S         138.5751  141.3715  159.8088 S.O2    1  UNL1        0.0634
     15 O         139.7072  142.2281  159.3243 O.2     1  UNL1       -0.1528
     16 O         137.4430  140.5150  160.2932 O.2     1  UNL1       -0.1528
     17 C         138.5196  142.1644  161.0809 C.ar    1  UNL1        0.1222
     18 C         139.2457  143.4731  161.1812 C.ar    1  UNL1        0.0206
     19 C         139.1902  144.2659  162.4534 C.ar    1  UNL1        0.0116
     20 C         138.4086  143.7501  163.6251 C.ar    1  UNL1        0.0685
     21 C         137.6825  142.4414  163.5248 C.ar    1  UNL1        0.0116
     22 C         137.7380  141.6485  162.2527 C.ar    1  UNL1        0.0206
     23 C         138.3531  144.5430  164.8972 C.1     1  UNL1        0.1004
     24 N         138.2976  145.3359  166.1693 N.1     1  UNL1       -0.1908
     25 C         142.1946  138.9638  166.2324 C.3     1  UNL1        0.1015
     26 C         141.7632  140.1343  167.0654 C.ar    1  UNL1        0.0214
     27 C         141.1687  141.3443  166.4076 C.ar    1  UNL1       -0.0000
     28 C         140.7373  142.5148  167.2405 C.ar    1  UNL1        0.0101
     29 C         140.9003  142.4754  168.7310 C.ar    1  UNL1        0.0707
     30 C         141.4948  141.2654  169.3888 C.ar    1  UNL1        0.0396
     31 C         141.9262  140.0949  168.5559 C.ar    1  UNL1        0.1381
     32 F         142.5206  138.8849  169.2136 F       1  UNL1       -0.2044
     33 C         140.4689  143.6460  169.5640 C.1     1  UNL1        0.1005
     34 N         140.0375  144.8165  170.3968 N.1     1  UNL1       -0.1908
@<TRIPOS>BOND
     1    12    13    1
     2    13    11    1
     3    11    10    1
     4    10     1    1
     5     1     2    1
     6     2     3    1
     7     3     4    1
     8     4     5    1
     9     5    25    1
    10    25    26    1
    11    26    27   ar
    12    27    28   ar
    13    28    29   ar
    14    29    33    1
    15    33    34    3
    16    29    30   ar
    17    30    31   ar
    18    31    32    1
    19     5     6    1
    20     6     7    1
    21     7     8    1
    22     7     9    1
    23    13    14    1
    24    14    15    2
    25    14    16    2
    26    14    17    1
    27    17    18   ar
    28    18    19   ar
    29    19    20   ar
    30    20    23    1
    31    23    24    3
    32    20    21   ar
    33    21    22   ar
    34     8     1    1
    35    22    17   ar
    36     9     3    1
    37    31    26   ar
@<TRIPOS>MOLECULE
*****
 34 37 0 0 0
SMALL
GASTEIGER

@<TRIPOS>ATOM
      1 N         137.9559  140.0306  161.0410 N.3     1  UNL1       -0.2673
      2 C         138.4325  138.7240  161.6028 C.3     1  UNL1        0.1035
      3 C         138.6769  138.5857  163.0762 C.3     1  UNL1        0.1470
      4 C         138.9213  138.4473  164.5497 C.3     1  UNL1        0.1037
      5 N         138.6891  139.6156  165.4614 N.3     1  UNL1       -0.2647
      6 C         138.2125  140.9222  164.8996 C.3     1  UNL1        0.1037
      7 C         137.9681  141.0605  163.4262 C.3     1  UNL1        0.1470
      8 C         137.7236  141.1988  161.9527 C.3     1  UNL1        0.1035
      9 O         138.4447  139.7540  163.9879 O.3     1  UNL1       -0.3530
     10 C         137.7114  140.1689  159.5675 C.3     1  UNL1        0.0916
     11 C         138.6356  141.0010  158.7288 C.3     1  UNL1        0.1131
     12 C         140.8236  140.0428  157.7068 C.3     1  UNL1        0.1149
     13 N         140.1178  140.7828  158.8042 N.3     1  UNL1       -0.1526
     14 S         140.8940  141.3046  159.9768 S.O2    1  UNL1        0.0634
     15 O         140.2705  142.6558  159.7883 O.2     1  UNL1       -0.1528
     16 O         141.5175  139.9534  160.1654 O.2     1  UNL1       -0.1528
     17 C         141.6703  141.8264  161.1495 C.ar    1  UNL1        0.1222
     18 C         142.6091  142.9828  160.9728 C.ar    1  UNL1        0.0206
     19 C         143.3854  143.5046  162.1455 C.ar    1  UNL1        0.0116
     20 C         143.2227  142.8701  163.4948 C.ar    1  UNL1        0.0685
     21 C         142.2839  141.7136  163.6716 C.ar    1  UNL1        0.0116
     22 C         141.5076  141.1918  162.4989 C.ar    1  UNL1        0.0206
     23 C         143.9990  143.3919  164.6675 C.1     1  UNL1        0.1004
     24 N         144.7752  143.9137  165.8402 N.1     1  UNL1       -0.1908
     25 C         138.9335  139.4773  166.9349 C.3     1  UNL1        0.1015
     26 C         140.1027  140.1704  167.5695 C.ar    1  UNL1        0.0214
     27 C         141.4020  140.2808  166.8281 C.ar    1  UNL1       -0.0000
     28 C         142.5711  140.9738  167.4626 C.ar    1  UNL1        0.0101
     29 C         142.4410  141.5565  168.8387 C.ar    1  UNL1        0.0707
     30 C         141.1418  141.4461  169.5801 C.ar    1  UNL1        0.0396
     31 C         139.9726  140.7531  168.9456 C.ar    1  UNL1        0.1381
     32 F         138.6734  140.6427  169.6870 F       1  UNL1       -0.2044
     33 C         143.6102  142.2496  169.4733 C.1     1  UNL1        0.1005
     34 N         144.7793  142.9427  170.1079 N.1     1  UNL1       -0.1908
@<TRIPOS>BOND
     1    12    13    1
     2    13    11    1
     3    11    10    1
     4    10     1    1
     5     1     2    1
     6     2     3    1
     7     3     4    1
     8     4     5    1
     9     5    25    1
    10    25    26    1
    11    26    27   ar
    12    27    28   ar
    13    28    29   ar
    14    29    33    1
    15    33    34    3
    16    29    30   ar
    17    30    31   ar
    18    31    32    1
    19     5     6    1
    20     6     7    1
    21     7     8    1
    22     7     9    1
    23    13    14    1
    24    14    15    2
    25    14    16    2
    26    14    17    1
    27    17    18   ar
    28    18    19   ar
    29    19    20   ar
    30    20    23    1
    31    23    24    3
    32    20    21   ar
    33    21    22   ar
    34     8     1    1
    35    22    17   ar
    36     9     3    1
    37    31    26   ar
@<TRIPOS>MOLECULE
*****
 34 37 0 0 0
SMALL
GASTEIGER

@<TRIPOS>ATOM
      1 N         139.3587  140.2315  158.6484 N.3     1  UNL1       -0.2673
      2 C         140.5164  139.3936  159.1039 C.3     1  UNL1        0.1035
      3 C         140.4550  138.6838  160.4239 C.3     1  UNL1        0.1470
      4 C         140.3936  137.9739  161.7439 C.3     1  UNL1        0.1037
      5 N         139.1745  138.1020  162.6084 N.3     1  UNL1       -0.2647
      6 C         138.0167  138.9400  162.1528 C.3     1  UNL1        0.1037
      7 C         138.0781  139.6498  160.8328 C.3     1  UNL1        0.1470
      8 C         138.1395  140.3596  159.5129 C.3     1  UNL1        0.1035
      9 O         139.2358  138.8119  161.2883 O.3     1  UNL1       -0.3530
     10 C         139.4201  140.9414  157.3284 C.3     1  UNL1        0.0916
     11 C         139.9224  142.3530  157.2586 C.3     1  UNL1        0.1131
     12 C         142.3708  142.9111  157.9251 C.3     1  UNL1        0.1149
     13 N         140.9126  142.8477  158.2710 N.3     1  UNL1       -0.1526
     14 S         140.4446  143.2789  159.6293 S.O2    1  UNL1        0.0634
     15 O         139.3020  144.0198  159.0004 O.2     1  UNL1       -0.1528
     16 O         141.5871  142.5380  160.2583 O.2     1  UNL1       -0.1528
     17 C         139.9765  143.7101  160.9876 C.ar    1  UNL1        0.1222
     18 C         138.6318  143.2756  161.4904 C.ar    1  UNL1        0.0206
     19 C         138.1637  143.7068  162.8487 C.ar    1  UNL1        0.0116
     20 C         139.0404  144.5725  163.7042 C.ar    1  UNL1        0.0685
     21 C         140.3852  145.0071  163.2014 C.ar    1  UNL1        0.0116
     22 C         140.8533  144.5759  161.8431 C.ar    1  UNL1        0.0206
     23 C         138.5723  145.0038  165.0625 C.1     1  UNL1        0.1004
     24 N         138.1043  145.4350  166.4208 N.1     1  UNL1       -0.1908
     25 C         139.1130  137.3922  163.9283 C.3     1  UNL1        0.1015
     26 C         139.1784  138.1764  165.2054 C.ar    1  UNL1        0.0214
     27 C         138.0029  138.1918  166.1371 C.ar    1  UNL1       -0.0000
     28 C         138.0682  138.9759  167.4141 C.ar    1  UNL1        0.0101
     29 C         139.3090  139.7447  167.7594 C.ar    1  UNL1        0.0707
     30 C         140.4845  139.7294  166.8278 C.ar    1  UNL1        0.0396
     31 C         140.4192  138.9452  165.5508 C.ar    1  UNL1        0.1381
     32 F         141.5947  138.9299  164.6191 F       1  UNL1       -0.2044
     33 C         139.3744  140.5289  169.0365 C.1     1  UNL1        0.1005
     34 N         139.4397  141.3130  170.3135 N.1     1  UNL1       -0.1908
@<TRIPOS>BOND
     1    12    13    1
     2    13    11    1
     3    11    10    1
     4    10     1    1
     5     1     2    1
     6     2     3    1
     7     3     4    1
     8     4     5    1
     9     5    25    1
    10    25    26    1
    11    26    27   ar
    12    27    28   ar
    13    28    29   ar
    14    29    33    1
    15    33    34    3
    16    29    30   ar
    17    30    31   ar
    18    31    32    1
    19     5     6    1
    20     6     7    1
    21     7     8    1
    22     7     9    1
    23    13    14    1
    24    14    15    2
    25    14    16    2
    26    14    17    1
    27    17    18   ar
    28    18    19   ar
    29    19    20   ar
    30    20    23    1
    31    23    24    3
    32    20    21   ar
    33    21    22   ar
    34     8     1    1
    35    22    17   ar
    36     9     3    1
    37    31    26   ar
@<TRIPOS>MOLECULE
*****
 34 37 0 0 0
SMALL
GASTEIGER

@<TRIPOS>ATOM
      1 N         142.1680  138.3702  161.0311 N.3     1  UNL1       -0.2673
      2 C         143.4613  138.9722  161.4947 C.3     1  UNL1        0.1035
      3 C         143.7547  139.0807  162.9617 C.3     1  UNL1        0.1470
      4 C         144.0481  139.1894  164.4288 C.3     1  UNL1        0.1037
      5 N         143.0481  138.6960  165.4321 N.3     1  UNL1       -0.2647
      6 C         141.7547  138.0941  164.9684 C.3     1  UNL1        0.1037
      7 C         141.4614  137.9855  163.5014 C.3     1  UNL1        0.1470
      8 C         141.1681  137.8769  162.0344 C.3     1  UNL1        0.1035
      9 O         142.7547  138.5874  163.9651 O.3     1  UNL1       -0.3530
     10 C         141.8747  138.2616  159.5640 C.3     1  UNL1        0.0916
     11 C         141.5166  139.4879  158.7780 C.3     1  UNL1        0.1131
     12 C         139.0967  139.8407  157.9007 C.3     1  UNL1        0.1149
     13 N         140.1574  140.1046  158.9279 N.3     1  UNL1       -0.1526
     14 S         139.8591  140.9852  160.1050 S.O2    1  UNL1        0.0634
     15 O         138.7090  140.0972  160.4778 O.2     1  UNL1       -0.1528
     16 O         141.0091  141.8732  159.7322 O.2     1  UNL1       -0.1528
     17 C         139.5607  141.8657  161.2821 C.ar    1  UNL1        0.1222
     18 C         138.1752  142.4038  161.4841 C.ar    1  UNL1        0.0206
     19 C         137.8768  143.2843  162.6612 C.ar    1  UNL1        0.0116
     20 C         138.9640  143.6269  163.6363 C.ar    1  UNL1        0.0685
     21 C         140.3496  143.0889  163.4342 C.ar    1  UNL1        0.0116
     22 C         140.6479  142.2083  162.2571 C.ar    1  UNL1        0.0206
     23 C         138.6656  144.5075  164.8134 C.1     1  UNL1        0.1004
     24 N         138.3672  145.3880  165.9905 N.1     1  UNL1       -0.1908
     25 C         143.3414  138.8046  166.8991 C.3     1  UNL1        0.1015
     26 C         142.5169  139.7117  167.7637 C.ar    1  UNL1        0.0214
     27 C         142.0831  139.2589  169.1263 C.ar    1  UNL1       -0.0000
     28 C         141.2587  140.1659  169.9909 C.ar    1  UNL1        0.0101
     29 C         140.8681  141.5258  169.4929 C.ar    1  UNL1        0.0707
     30 C         141.3020  141.9787  168.1303 C.ar    1  UNL1        0.0396
     31 C         142.1264  141.0716  167.2657 C.ar    1  UNL1        0.1381
     32 F         142.5602  141.5245  165.9031 F       1  UNL1       -0.2044
     33 C         140.0437  142.4330  170.3575 C.1     1  UNL1        0.1005
     34 N         139.2192  143.3400  171.2220 N.1     1  UNL1       -0.1908
@<TRIPOS>BOND
     1    12    13    1
     2    13    11    1
     3    11    10    1
     4    10     1    1
     5     1     2    1
     6     2     3    1
     7     3     4    1
     8     4     5    1
     9     5    25    1
    10    25    26    1
    11    26    27   ar
    12    27    28   ar
    13    28    29   ar
    14    29    33    1
    15    33    34    3
    16    29    30   ar
    17    30    31   ar
    18    31    32    1
    19     5     6    1
    20     6     7    1
    21     7     8    1
    22     7     9    1
    23    13    14    1
    24    14    15    2
    25    14    16    2
    26    14    17    1
    27    17    18   ar
    28    18    19   ar
    29    19    20   ar
    30    20    23    1
    31    23    24    3
    32    20    21   ar
    33    21    22   ar
    34     8     1    1
    35    22    17   ar
    36     9     3    1
    37    31    26   ar
@<TRIPOS>MOLECULE
*****
 34 37 0 0 0
SMALL
GASTEIGER

@<TRIPOS>ATOM
      1 N         139.7081  141.6854  158.9361 N.3     1  UNL1       -0.2673
      2 C         140.8563  140.7837  159.2801 C.3     1  UNL1        0.1035
      3 C         140.7647  139.8727  160.4683 C.3     1  UNL1        0.1470
      4 C         140.6732  138.9618  161.6565 C.3     1  UNL1        0.1037
      5 N         139.4333  138.9526  162.5007 N.3     1  UNL1       -0.2647
      6 C         138.2850  139.8543  162.1566 C.3     1  UNL1        0.1037
      7 C         138.3766  140.7653  160.9685 C.3     1  UNL1        0.1470
      8 C         138.4682  141.6762  159.7803 C.3     1  UNL1        0.1035
      9 O         139.5249  139.8635  161.3124 O.3     1  UNL1       -0.3530
     10 C         139.7996  142.5964  157.7479 C.3     1  UNL1        0.0916
     11 C         139.7816  144.0839  157.9401 C.3     1  UNL1        0.1131
     12 C         141.6871  145.8499  157.9416 C.3     1  UNL1        0.1149
     13 N         140.9221  144.7638  158.6380 N.3     1  UNL1       -0.1526
     14 S         141.2974  144.3577  160.0323 S.O2    1  UNL1        0.0634
     15 O         139.9412  144.7746  160.5189 O.2     1  UNL1       -0.1528
     16 O         142.6537  143.9407  159.5458 O.2     1  UNL1       -0.1528
     17 C         141.6728  143.9515  161.4267 C.ar    1  UNL1        0.1222
     18 C         140.6986  143.1869  162.2730 C.ar    1  UNL1        0.0206
     19 C         141.0740  142.7807  163.6673 C.ar    1  UNL1        0.0116
     20 C         142.4235  143.1391  164.2153 C.ar    1  UNL1        0.0685
     21 C         143.3978  143.9037  163.3689 C.ar    1  UNL1        0.0116
     22 C         143.0224  144.3099  161.9746 C.ar    1  UNL1        0.0206
     23 C         142.7989  142.7330  165.6096 C.1     1  UNL1        0.1004
     24 N         143.1742  142.3268  167.0039 N.1     1  UNL1       -0.1908
     25 C         139.3417  138.0416  163.6888 C.3     1  UNL1        0.1015
     26 C         139.3247  138.6158  165.0746 C.ar    1  UNL1        0.0214
     27 C         138.1337  138.4010  165.9608 C.ar    1  UNL1       -0.0000
     28 C         138.1166  138.9751  167.3464 C.ar    1  UNL1        0.0101
     29 C         139.2905  139.7640  167.8459 C.ar    1  UNL1        0.0707
     30 C         140.4815  139.9788  166.9597 C.ar    1  UNL1        0.0396
     31 C         140.4986  139.4047  165.5740 C.ar    1  UNL1        0.1381
     32 F         141.6896  139.6195  164.6878 F       1  UNL1       -0.2044
     33 C         139.2734  140.3381  169.2316 C.1     1  UNL1        0.1005
     34 N         139.2564  140.9122  170.6172 N.1     1  UNL1       -0.1908
@<TRIPOS>BOND
     1    12    13    1
     2    13    11    1
     3    11    10    1
     4    10     1    1
     5     1     2    1
     6     2     3    1
     7     3     4    1
     8     4     5    1
     9     5    25    1
    10    25    26    1
    11    26    27   ar
    12    27    28   ar
    13    28    29   ar
    14    29    33    1
    15    33    34    3
    16    29    30   ar
    17    30    31   ar
    18    31    32    1
    19     5     6    1
    20     6     7    1
    21     7     8    1
    22     7     9    1
    23    13    14    1
    24    14    15    2
    25    14    16    2
    26    14    17    1
    27    17    18   ar
    28    18    19   ar
    29    19    20   ar
    30    20    23    1
    31    23    24    3
    32    20    21   ar
    33    21    22   ar
    34     8     1    1
    35    22    17   ar
    36     9     3    1
    37    31    26   ar
@<TRIPOS>MOLECULE
*****
 34 37 0 0 0
SMALL
GASTEIGER

@<TRIPOS>ATOM
      1 N         139.9353  139.5515  159.8653 N.3     1  UNL1       -0.2673
      2 C         141.3502  139.1249  160.1224 C.3     1  UNL1        0.1035
      3 C         142.0784  138.2926  159.1091 C.3     1  UNL1        0.1470
      4 C         142.8068  137.4601  158.0958 C.3     1  UNL1        0.1037
      5 N         142.1202  137.0544  156.8254 N.3     1  UNL1       -0.2647
      6 C         140.7052  137.4810  156.5683 C.3     1  UNL1        0.1037
      7 C         139.9770  138.3134  157.5816 C.3     1  UNL1        0.1470
      8 C         139.2487  139.1458  158.5949 C.3     1  UNL1        0.1035
      9 O         141.3918  137.8868  157.8387 O.3     1  UNL1       -0.3530
     10 C         139.2070  140.3840  160.8786 C.3     1  UNL1        0.0916
     11 C         139.7722  140.5510  162.2579 C.3     1  UNL1        0.1131
     12 C         138.5513  138.4137  163.0892 C.3     1  UNL1        0.1149
     13 N         139.2666  139.6988  163.3840 N.3     1  UNL1       -0.1526
     14 S         139.4763  140.1316  164.8048 S.O2    1  UNL1        0.0634
     15 O         140.8586  140.5997  164.4582 O.2     1  UNL1       -0.1528
     16 O         138.0940  139.6636  165.1514 O.2     1  UNL1       -0.1528
     17 C         139.6860  140.5645  166.2255 C.ar    1  UNL1        0.1222
     18 C         140.3648  141.8694  166.5196 C.ar    1  UNL1        0.0206
     19 C         140.5744  142.3022  167.9404 C.ar    1  UNL1        0.0116
     20 C         140.1054  141.4303  169.0671 C.ar    1  UNL1        0.0685
     21 C         139.4265  140.1253  168.7731 C.ar    1  UNL1        0.0116
     22 C         139.2168  139.6924  167.3523 C.ar    1  UNL1        0.0206
     23 C         140.3150  141.8631  170.4879 C.1     1  UNL1        0.1004
     24 N         140.5247  142.2960  171.9087 N.1     1  UNL1       -0.1908
     25 C         142.8484  136.2220  155.8122 C.3     1  UNL1        0.1015
     26 C         142.5337  134.7617  155.6752 C.ar    1  UNL1        0.0214
     27 C         141.5898  134.2949  154.6070 C.ar    1  UNL1       -0.0000
     28 C         141.2750  132.8348  154.4701 C.ar    1  UNL1        0.0101
     29 C         141.9042  131.8414  155.4013 C.ar    1  UNL1        0.0707
     30 C         142.8481  132.3082  156.4695 C.ar    1  UNL1        0.0396
     31 C         143.1629  133.7684  156.6065 C.ar    1  UNL1        0.1381
     32 F         144.1068  134.2352  157.6747 F       1  UNL1       -0.2044
     33 C         141.5895  130.3811  155.2644 C.1     1  UNL1        0.1005
     34 N         141.2747  128.9210  155.1275 N.1     1  UNL1       -0.1908
@<TRIPOS>BOND
     1    12    13    1
     2    13    11    1
     3    11    10    1
     4    10     1    1
     5     1     2    1
     6     2     3    1
     7     3     4    1
     8     4     5    1
     9     5    25    1
    10    25    26    1
    11    26    27   ar
    12    27    28   ar
    13    28    29   ar
    14    29    33    1
    15    33    34    3
    16    29    30   ar
    17    30    31   ar
    18    31    32    1
    19     5     6    1
    20     6     7    1
    21     7     8    1
    22     7     9    1
    23    13    14    1
    24    14    15    2
    25    14    16    2
    26    14    17    1
    27    17    18   ar
    28    18    19   ar
    29    19    20   ar
    30    20    23    1
    31    23    24    3
    32    20    21   ar
    33    21    22   ar
    34     8     1    1
    35    22    17   ar
    36     9     3    1
    37    31    26   ar
