@<TRIPOS>MOLECULE
*****
 34 38 0 0 0
SMALL
GASTEIGER

@<TRIPOS>ATOM
      1 C         138.3639  139.7300  159.9909 C.ar    1  UNL1        0.0503
      2 C         137.7852  140.1330  161.3147 C.ar    1  UNL1        0.0143
      3 C         138.4723  139.7331  162.5866 C.ar    1  UNL1       -0.0029
      4 C         139.7383  138.9303  162.5348 C.ar    1  UNL1       -0.0208
      5 C         140.3171  138.5272  161.2109 C.ar    1  UNL1       -0.0029
      6 C         139.6299  138.9271  159.9389 C.ar    1  UNL1        0.0143
      7 O         138.6521  142.5272  158.9456 O.2     1  UNL1       -0.2744
      8 C         137.8208  141.5285  158.1963 C.2     1  UNL1        0.2313
      9 N         137.6767  140.1298  158.7189 N.am    1  UNL1       -0.2836
     10 H         137.1311  139.4743  158.2271 H       1  UNL1        0.1549
     11 C         137.1336  141.9284  156.9243 C.3     1  UNL1        0.1173
     12 C         137.4675  143.1221  156.0794 C.3     1  UNL1        0.0204
     13 C         136.5321  143.1361  154.9068 C.3     1  UNL1        0.0351
     14 C         135.6202  141.9512  155.0270 C.ar    1  UNL1        0.0227
     15 S         134.4785  141.2277  154.3766 S.2     1  UNL1       -0.0692
     16 C         134.1447  140.0341  155.2215 C.ar    1  UNL1        0.1338
     17 N         135.0801  140.0199  156.3940 N.ar    1  UNL1       -0.2405
     18 C         135.9920  141.2048  156.2739 C.ar    1  UNL1        0.0699
     19 C         140.4255  138.5304  163.8067 C.3     1  UNL1        0.0420
     20 C         139.7529  138.7618  165.1273 C.3     1  UNL1        0.0585
     21 C         138.3584  138.3463  165.4914 C.3     1  UNL1        0.0175
     22 C         138.1004  138.7771  166.9048 C.3     1  UNL1        0.0199
     23 C         139.3354  139.4590  167.4143 C.3     1  UNL1        0.0856
     24 N         140.3567  139.4495  166.3158 N.3     1  UNL1       -0.2971
     25 H         141.1892  138.9455  166.6214 H       1  UNL1        0.1233
     26 C         139.5172  140.0470  168.7822 C.3     1  UNL1        0.1484
     27 O         138.4012  139.9793  169.7821 O.3     1  UNL1       -0.3786
     28 H         138.6815  140.4025  170.6087 H       1  UNL1        0.2108
     29 C         140.8151  140.7028  169.1502 C.ar    1  UNL1        0.0247
     30 C         140.9563  142.1931  169.0538 C.ar    1  UNL1        0.0012
     31 C         142.2542  142.8489  169.4218 C.ar    1  UNL1        0.0204
     32 C         143.4109  142.0145  169.8862 C.ar    1  UNL1        0.0989
     33 N         143.2697  140.5242  169.9826 N.ar    1  UNL1       -0.2426
     34 C         141.9719  139.8684  169.6146 C.ar    1  UNL1        0.0969
@<TRIPOS>BOND
     1     7     8    2
     2     8     9   am
     3     9     1    1
     4     1     2   ar
     5     2     3   ar
     6     3     4   ar
     7     4    19    1
     8    20    19    1
     9    20    21    1
    10    21    22    1
    11    23    22    1
    12    23    26    1
    13    26    27    1
    14    26    29    1
    15    29    30   ar
    16    30    31   ar
    17    31    32   ar
    18    32    33   ar
    19    33    34   ar
    20    23    24    1
    21     4     5   ar
    22     5     6   ar
    23    11     8    1
    24    11    12    1
    25    12    13    1
    26    13    14    1
    27    14    15   ar
    28    15    16   ar
    29    16    17   ar
    30    17    18   ar
    31     6     1   ar
    32    18    11    1
    33    24    20    1
    34    18    14   ar
    35    34    29   ar
    36     9    10    1
    37    27    28    1
    38    24    25    1
@<TRIPOS>MOLECULE
*****
 34 38 0 0 0
SMALL
GASTEIGER

@<TRIPOS>ATOM
      1 C         139.8501  144.7976  161.5396 C.ar    1  UNL1        0.0503
      2 C         140.7418  145.4815  162.5331 C.ar    1  UNL1        0.0143
      3 C         140.6245  145.1584  163.9932 C.ar    1  UNL1       -0.0029
      4 C         139.6155  144.1514  164.4598 C.ar    1  UNL1       -0.0208
      5 C         138.7237  143.4674  163.4663 C.ar    1  UNL1       -0.0029
      6 C         138.8410  143.7905  162.0062 C.ar    1  UNL1        0.0143
      7 O         142.4050  144.2216  160.0764 O.2     1  UNL1       -0.2744
      8 C         141.2449  144.8327  159.3479 C.2     1  UNL1        0.2313
      9 N         139.9674  145.1207  160.0795 N.am    1  UNL1       -0.2836
     10 H         139.2060  145.5218  159.6014 H       1  UNL1        0.1549
     11 C         141.3622  145.1558  157.8879 C.3     1  UNL1        0.1173
     12 C         142.3773  144.5912  156.9387 C.3     1  UNL1        0.0204
     13 C         142.1274  145.1867  155.5848 C.3     1  UNL1        0.0351
     14 C         140.9580  146.1194  155.6972 C.ar    1  UNL1        0.0227
     15 S         140.0809  147.0638  154.9299 S.2     1  UNL1       -0.0692
     16 C         139.0659  147.6284  155.8791 C.ar    1  UNL1        0.1338
     17 N         139.3157  147.0329  157.2330 N.ar    1  UNL1       -0.2405
     18 C         140.4851  146.1002  157.1206 C.ar    1  UNL1        0.0699
     19 C         139.4982  143.8283  165.9199 C.3     1  UNL1        0.0420
     20 C         140.3419  142.7417  166.5177 C.3     1  UNL1        0.0585
     21 C         140.7879  142.6575  167.9473 C.3     1  UNL1        0.0175
     22 C         141.6094  141.4123  168.1041 C.3     1  UNL1        0.0199
     23 C         141.6712  140.7270  166.7713 C.3     1  UNL1        0.0856
     24 N         140.8879  141.5486  165.7908 N.3     1  UNL1       -0.2971
     25 H         140.1208  140.9946  165.4098 H       1  UNL1        0.1233
     26 C         142.3902  139.4451  166.4715 C.3     1  UNL1        0.1484
     27 O         143.2203  138.7849  167.5322 O.3     1  UNL1       -0.3786
     28 H         143.6131  137.9726  167.1764 H       1  UNL1        0.2108
     29 C         142.2791  138.8233  165.1110 C.ar    1  UNL1        0.0247
     30 C         141.1428  137.8941  164.8015 C.ar    1  UNL1        0.0012
     31 C         141.0317  137.2724  163.4410 C.ar    1  UNL1        0.0204
     32 C         142.0568  137.5797  162.3899 C.ar    1  UNL1        0.0989
     33 N         143.1930  138.5088  162.6994 N.ar    1  UNL1       -0.2426
     34 C         143.3041  139.1306  164.0599 C.ar    1  UNL1        0.0969
@<TRIPOS>BOND
     1     7     8    2
     2     8     9   am
     3     9     1    1
     4     1     2   ar
     5     2     3   ar
     6     3     4   ar
     7     4    19    1
     8    20    19    1
     9    20    21    1
    10    21    22    1
    11    23    22    1
    12    23    26    1
    13    26    27    1
    14    26    29    1
    15    29    30   ar
    16    30    31   ar
    17    31    32   ar
    18    32    33   ar
    19    33    34   ar
    20    23    24    1
    21     4     5   ar
    22     5     6   ar
    23    11     8    1
    24    11    12    1
    25    12    13    1
    26    13    14    1
    27    14    15   ar
    28    15    16   ar
    29    16    17   ar
    30    17    18   ar
    31     6     1   ar
    32    18    11    1
    33    24    20    1
    34    18    14   ar
    35    34    29   ar
    36     9    10    1
    37    27    28    1
    38    24    25    1
@<TRIPOS>MOLECULE
*****
 34 38 0 0 0
SMALL
GASTEIGER

@<TRIPOS>ATOM
      1 C         139.1000  139.1568  159.7050 C.ar    1  UNL1        0.0503
      2 C         140.5873  138.9630  159.6919 C.ar    1  UNL1        0.0143
      3 C         141.2845  138.4261  160.9067 C.ar    1  UNL1       -0.0029
      4 C         140.4943  138.0831  162.1346 C.ar    1  UNL1       -0.0208
      5 C         139.0069  138.2768  162.1478 C.ar    1  UNL1       -0.0029
      6 C         138.3098  138.8137  160.9330 C.ar    1  UNL1        0.0143
      7 O         138.4736  142.0839  159.5059 O.2     1  UNL1       -0.2744
      8 C         138.0896  141.1572  158.3907 C.2     1  UNL1        0.2313
      9 N         138.4028  139.6936  158.4902 N.am    1  UNL1       -0.2836
     10 H         138.1508  139.0854  157.7582 H       1  UNL1        0.1549
     11 C         137.3925  141.6941  157.1759 C.3     1  UNL1        0.1173
     12 C         137.7803  142.9227  156.4075 C.3     1  UNL1        0.0204
     13 C         136.8126  143.0845  155.2729 C.3     1  UNL1        0.0351
     14 C         135.8267  141.9560  155.3400 C.ar    1  UNL1        0.0227
     15 S         134.6193  141.3586  154.6802 S.2     1  UNL1       -0.0692
     16 C         134.2315  140.1301  155.4486 C.ar    1  UNL1        0.1338
     17 N         135.1992  139.9682  156.5832 N.ar    1  UNL1       -0.2405
     18 C         136.1851  141.0967  156.5161 C.ar    1  UNL1        0.0699
     19 C         141.1915  137.5462  163.3494 C.3     1  UNL1        0.0420
     20 C         141.7653  138.4907  164.3636 C.3     1  UNL1        0.0585
     21 C         142.6852  138.1228  165.4897 C.3     1  UNL1        0.0175
     22 C         143.0084  139.3737  166.2518 C.3     1  UNL1        0.0199
     23 C         142.2882  140.5147  165.5967 C.3     1  UNL1        0.0856
     24 N         141.5199  139.9690  164.4297 N.3     1  UNL1       -0.2971
     25 H         141.8388  140.4117  163.5678 H       1  UNL1        0.1233
     26 C         142.3290  141.9496  166.0321 C.3     1  UNL1        0.1484
     27 O         143.3003  142.3853  167.0889 O.3     1  UNL1       -0.3786
     28 H         143.1965  143.3360  167.2512 H       1  UNL1        0.2108
     29 C         141.3986  142.9487  165.4107 C.ar    1  UNL1        0.0247
     30 C         140.0261  143.1513  165.9810 C.ar    1  UNL1        0.0012
     31 C         139.0957  144.1504  165.3596 C.ar    1  UNL1        0.0204
     32 C         139.5378  144.9469  164.1679 C.ar    1  UNL1        0.0989
     33 N         140.9103  144.7443  163.5976 N.ar    1  UNL1       -0.2426
     34 C         141.8407  143.7452  164.2190 C.ar    1  UNL1        0.0969
@<TRIPOS>BOND
     1     7     8    2
     2     8     9   am
     3     9     1    1
     4     1     2   ar
     5     2     3   ar
     6     3     4   ar
     7     4    19    1
     8    20    19    1
     9    20    21    1
    10    21    22    1
    11    23    22    1
    12    23    26    1
    13    26    27    1
    14    26    29    1
    15    29    30   ar
    16    30    31   ar
    17    31    32   ar
    18    32    33   ar
    19    33    34   ar
    20    23    24    1
    21     4     5   ar
    22     5     6   ar
    23    11     8    1
    24    11    12    1
    25    12    13    1
    26    13    14    1
    27    14    15   ar
    28    15    16   ar
    29    16    17   ar
    30    17    18   ar
    31     6     1   ar
    32    18    11    1
    33    24    20    1
    34    18    14   ar
    35    34    29   ar
    36     9    10    1
    37    27    28    1
    38    24    25    1
@<TRIPOS>MOLECULE
*****
 34 38 0 0 0
SMALL
GASTEIGER

@<TRIPOS>ATOM
      1 C         137.8425  139.5655  160.9498 C.ar    1  UNL1        0.0503
      2 C         137.5867  140.5526  162.0498 C.ar    1  UNL1        0.0143
      3 C         137.9419  140.2067  163.4655 C.ar    1  UNL1       -0.0029
      4 C         138.5530  138.8737  163.7811 C.ar    1  UNL1       -0.0208
      5 C         138.8089  137.8865  162.6811 C.ar    1  UNL1       -0.0029
      6 C         138.4537  138.2324  161.2654 C.ar    1  UNL1        0.0143
      7 O         139.4876  141.5664  159.4365 O.2     1  UNL1       -0.2744
      8 C         138.3099  140.9119  158.7774 C.2     1  UNL1        0.2313
      9 N         137.4873  139.9114  159.5341 N.am    1  UNL1       -0.2836
     10 H         136.7143  139.4817  159.1015 H       1  UNL1        0.1549
     11 C         137.9546  141.2577  157.3618 C.3     1  UNL1        0.1173
     12 C         138.8320  141.9826  156.3845 C.3     1  UNL1        0.0204
     13 C         138.0792  142.1123  155.0935 C.3     1  UNL1        0.0351
     14 C         136.7367  141.4677  155.2729 C.ar    1  UNL1        0.0227
     15 S         135.4418  141.1496  154.5859 S.2     1  UNL1       -0.0692
     16 C         134.5645  140.4248  155.5632 C.ar    1  UNL1        0.1338
     17 N         135.3172  140.2950  156.8541 N.ar    1  UNL1       -0.2405
     18 C         136.6597  140.9396  156.6747 C.ar    1  UNL1        0.0699
     19 C         138.9083  138.5278  165.1968 C.3     1  UNL1        0.0420
     20 C         139.7895  139.4432  165.9940 C.3     1  UNL1        0.0585
     21 C         139.5543  139.8821  167.4088 C.3     1  UNL1        0.0175
     22 C         140.6801  140.7905  167.8055 C.3     1  UNL1        0.0199
     23 C         141.6111  140.9130  166.6358 C.3     1  UNL1        0.0856
     24 N         141.0606  140.0802  165.5162 N.3     1  UNL1       -0.2971
     25 H         141.7338  139.3586  165.2583 H       1  UNL1        0.1233
     26 C         142.8713  141.7255  166.5932 C.3     1  UNL1        0.1484
     27 O         143.3498  142.4326  167.8265 O.3     1  UNL1       -0.3786
     28 H         144.1717  142.9081  167.6282 H       1  UNL1        0.2108
     29 C         143.6529  141.8309  165.3173 C.ar    1  UNL1        0.0247
     30 C         144.4076  140.6423  164.7997 C.ar    1  UNL1        0.0012
     31 C         145.1893  140.7477  163.5238 C.ar    1  UNL1        0.0204
     32 C         145.2162  142.0417  162.7655 C.ar    1  UNL1        0.0989
     33 N         144.4614  143.2302  163.2831 N.ar    1  UNL1       -0.2426
     34 C         143.6798  143.1248  164.5590 C.ar    1  UNL1        0.0969
@<TRIPOS>BOND
     1     7     8    2
     2     8     9   am
     3     9     1    1
     4     1     2   ar
     5     2     3   ar
     6     3     4   ar
     7     4    19    1
     8    20    19    1
     9    20    21    1
    10    21    22    1
    11    23    22    1
    12    23    26    1
    13    26    27    1
    14    26    29    1
    15    29    30   ar
    16    30    31   ar
    17    31    32   ar
    18    32    33   ar
    19    33    34   ar
    20    23    24    1
    21     4     5   ar
    22     5     6   ar
    23    11     8    1
    24    11    12    1
    25    12    13    1
    26    13    14    1
    27    14    15   ar
    28    15    16   ar
    29    16    17   ar
    30    17    18   ar
    31     6     1   ar
    32    18    11    1
    33    24    20    1
    34    18    14   ar
    35    34    29   ar
    36     9    10    1
    37    27    28    1
    38    24    25    1
@<TRIPOS>MOLECULE
*****
 34 38 0 0 0
SMALL
GASTEIGER

@<TRIPOS>ATOM
      1 C         144.6119  142.4536  161.7652 C.ar    1  UNL1        0.0503
      2 C         143.8250  143.6300  162.2618 C.ar    1  UNL1        0.0143
      3 C         143.6162  143.8250  163.7344 C.ar    1  UNL1       -0.0029
      4 C         144.1944  142.8436  164.7103 C.ar    1  UNL1       -0.0208
      5 C         144.9814  141.6671  164.2137 C.ar    1  UNL1       -0.0029
      6 C         145.1902  141.4721  162.7412 C.ar    1  UNL1        0.0143
      7 O         142.8372  140.5816  160.2335 O.2     1  UNL1       -0.2744
      8 C         143.9333  141.3226  159.5268 C.2     1  UNL1        0.2313
      9 N         144.8207  142.2586  160.2927 N.am    1  UNL1       -0.2836
     10 H         145.5402  142.7449  159.8289 H       1  UNL1        0.1549
     11 C         144.1421  141.1275  158.0543 C.3     1  UNL1        0.1173
     12 C         143.2627  140.3304  157.1370 C.3     1  UNL1        0.0204
     13 C         143.8441  140.4056  155.7563 C.3     1  UNL1        0.0351
     14 C         145.0828  141.2492  155.8202 C.ar    1  UNL1        0.0227
     15 S         146.2076  141.8170  155.0064 S.2     1  UNL1       -0.0692
     16 C         147.0869  142.6141  155.9236 C.ar    1  UNL1        0.1338
     17 N         146.5056  142.5390  157.3044 N.ar    1  UNL1       -0.2405
     18 C         145.2669  141.6954  157.2404 C.ar    1  UNL1        0.0699
     19 C         143.9856  143.0386  166.1829 C.3     1  UNL1        0.0420
     20 C         142.9316  142.2499  166.9019 C.3     1  UNL1        0.0585
     21 C         142.8304  142.0619  168.3865 C.3     1  UNL1        0.0175
     22 C         141.6300  141.2065  168.6647 C.3     1  UNL1        0.0199
     23 C         140.9894  140.8657  167.3519 C.3     1  UNL1        0.0856
     24 N         141.7939  141.5106  166.2624 N.3     1  UNL1       -0.2971
     25 H         141.2086  142.1618  165.7391 H       1  UNL1        0.1233
     26 C         139.7602  140.0273  167.1619 C.3     1  UNL1        0.1484
     27 O         138.9814  139.5571  168.3545 O.3     1  UNL1       -0.3786
     28 H         138.2223  139.0310  168.0580 H       1  UNL1        0.2108
     29 C         139.3098  139.6592  165.7793 C.ar    1  UNL1        0.0247
     30 C         139.7046  138.3379  165.1888 C.ar    1  UNL1        0.0012
     31 C         139.2542  137.9697  163.8062 C.ar    1  UNL1        0.0204
     32 C         138.4090  138.9227  163.0141 C.ar    1  UNL1        0.0989
     33 N         138.0142  140.2440  163.6046 N.ar    1  UNL1       -0.2426
     34 C         138.4646  140.6122  164.9872 C.ar    1  UNL1        0.0969
@<TRIPOS>BOND
     1     7     8    2
     2     8     9   am
     3     9     1    1
     4     1     2   ar
     5     2     3   ar
     6     3     4   ar
     7     4    19    1
     8    20    19    1
     9    20    21    1
    10    21    22    1
    11    23    22    1
    12    23    26    1
    13    26    27    1
    14    26    29    1
    15    29    30   ar
    16    30    31   ar
    17    31    32   ar
    18    32    33   ar
    19    33    34   ar
    20    23    24    1
    21     4     5   ar
    22     5     6   ar
    23    11     8    1
    24    11    12    1
    25    12    13    1
    26    13    14    1
    27    14    15   ar
    28    15    16   ar
    29    16    17   ar
    30    17    18   ar
    31     6     1   ar
    32    18    11    1
    33    24    20    1
    34    18    14   ar
    35    34    29   ar
    36     9    10    1
    37    27    28    1
    38    24    25    1
@<TRIPOS>MOLECULE
*****
 34 38 0 0 0
SMALL
GASTEIGER

@<TRIPOS>ATOM
      1 C         138.4932  139.3486  160.4360 C.ar    1  UNL1        0.0503
      2 C         139.7763  138.5720  160.4168 C.ar    1  UNL1        0.0143
      3 C         140.3397  138.0226  161.6939 C.ar    1  UNL1       -0.0029
      4 C         139.6199  138.2499  162.9901 C.ar    1  UNL1       -0.0208
      5 C         138.3367  139.0266  163.0093 C.ar    1  UNL1       -0.0029
      6 C         137.7734  139.5760  161.7323 C.ar    1  UNL1        0.0143
      7 O         139.1940  142.1317  159.5621 O.2     1  UNL1       -0.2744
      8 C         138.2802  141.2895  158.7220 C.2     1  UNL1        0.2313
      9 N         137.9298  139.8979  159.1590 N.am    1  UNL1       -0.2836
     10 H         137.3301  139.3452  158.6076 H       1  UNL1        0.1549
     11 C         137.7168  141.8388  157.4450 C.3     1  UNL1        0.1173
     12 C         138.2342  143.0294  156.6932 C.3     1  UNL1        0.0204
     13 C         137.3743  143.2204  155.4791 C.3     1  UNL1        0.0351
     14 C         136.3255  142.1480  155.4805 C.ar    1  UNL1        0.0227
     15 S         135.1459  141.6033  154.7310 S.2     1  UNL1       -0.0692
     16 C         134.6285  140.4129  155.4827 C.ar    1  UNL1        0.1338
     17 N         135.4884  140.2218  156.6969 N.ar    1  UNL1       -0.2405
     18 C         136.5372  141.2942  156.6955 C.ar    1  UNL1        0.0699
     19 C         140.1833  137.7006  164.2672 C.3     1  UNL1        0.0420
     20 C         141.2235  138.4741  165.0219 C.3     1  UNL1        0.0585
     21 C         142.6313  138.0305  165.2885 C.3     1  UNL1        0.0175
     22 C         143.3163  139.1092  166.0740 C.3     1  UNL1        0.0199
     23 C         142.3319  140.2195  166.2929 C.3     1  UNL1        0.0856
     24 N         141.0384  139.8270  165.6426 N.3     1  UNL1       -0.2971
     25 H         140.7922  140.5071  164.9234 H       1  UNL1        0.1233
     26 C         142.5948  141.4980  167.0321 C.3     1  UNL1        0.1484
     27 O         143.4720  142.5506  166.4218 O.3     1  UNL1       -0.3786
     28 H         143.5373  143.3070  167.0256 H       1  UNL1        0.2108
     29 C         141.9804  141.7238  168.3818 C.ar    1  UNL1        0.0247
     30 C         140.8375  142.6833  168.5346 C.ar    1  UNL1        0.0012
     31 C         140.2231  142.9091  169.8842 C.ar    1  UNL1        0.0204
     32 C         140.7516  142.1756  171.0811 C.ar    1  UNL1        0.0989
     33 N         141.8946  141.2161  170.9283 N.ar    1  UNL1       -0.2426
     34 C         142.5089  140.9903  169.5787 C.ar    1  UNL1        0.0969
@<TRIPOS>BOND
     1     7     8    2
     2     8     9   am
     3     9     1    1
     4     1     2   ar
     5     2     3   ar
     6     3     4   ar
     7     4    19    1
     8    20    19    1
     9    20    21    1
    10    21    22    1
    11    23    22    1
    12    23    26    1
    13    26    27    1
    14    26    29    1
    15    29    30   ar
    16    30    31   ar
    17    31    32   ar
    18    32    33   ar
    19    33    34   ar
    20    23    24    1
    21     4     5   ar
    22     5     6   ar
    23    11     8    1
    24    11    12    1
    25    12    13    1
    26    13    14    1
    27    14    15   ar
    28    15    16   ar
    29    16    17   ar
    30    17    18   ar
    31     6     1   ar
    32    18    11    1
    33    24    20    1
    34    18    14   ar
    35    34    29   ar
    36     9    10    1
    37    27    28    1
    38    24    25    1
@<TRIPOS>MOLECULE
*****
 34 38 0 0 0
SMALL
GASTEIGER

@<TRIPOS>ATOM
      1 C         142.2684  138.6065  157.5443 C.ar    1  UNL1        0.0503
      2 C         141.9323  139.6602  156.5311 C.ar    1  UNL1        0.0143
      3 C         142.2613  141.0976  156.8065 C.ar    1  UNL1       -0.0029
      4 C         142.9263  141.4812  158.0951 C.ar    1  UNL1       -0.0208
      5 C         143.2624  140.4274  159.1084 C.ar    1  UNL1       -0.0029
      6 C         142.9334  138.9901  158.8330 C.ar    1  UNL1        0.0143
      7 O         144.2023  136.8899  156.0233 O.2     1  UNL1       -0.2744
      8 C         142.9064  136.3108  156.5084 C.2     1  UNL1        0.2313
      9 N         141.9394  137.1692  157.2689 N.am    1  UNL1       -0.2836
     10 H         141.0888  136.7891  157.5873 H       1  UNL1        0.1549
     11 C         142.5774  134.8735  156.2330 C.3     1  UNL1        0.1173
     12 C         141.4704  134.3756  155.3516 C.3     1  UNL1        0.0204
     13 C         141.5065  132.8761  155.3646 C.3     1  UNL1        0.0351
     14 C         142.6357  132.4472  156.2539 C.ar    1  UNL1        0.0227
     15 S         143.3559  131.2554  156.8115 S.2     1  UNL1       -0.0692
     16 C         144.4629  131.7533  157.6928 C.ar    1  UNL1        0.1338
     17 N         144.4268  133.2528  157.6799 N.ar    1  UNL1       -0.2405
     18 C         143.2976  133.6817  156.7906 C.ar    1  UNL1        0.0699
     19 C         143.2553  142.9185  158.3704 C.3     1  UNL1        0.0420
     20 C         142.2032  143.8373  158.9170 C.3     1  UNL1        0.0585
     21 C         141.3796  144.8065  158.1220 C.3     1  UNL1        0.0175
     22 C         140.4573  145.5164  159.0683 C.3     1  UNL1        0.0199
     23 C         140.7109  144.9859  160.4482 C.3     1  UNL1        0.0856
     24 N         141.7899  143.9481  160.3547 N.3     1  UNL1       -0.2971
     25 H         141.4356  143.0498  160.6833 H       1  UNL1        0.1233
     26 C         140.0088  145.4174  161.7015 C.3     1  UNL1        0.1484
     27 O         140.1297  146.8342  162.1791 O.3     1  UNL1       -0.3786
     28 H         139.6189  146.9446  162.9963 H       1  UNL1        0.2108
     29 C         139.1858  144.4321  162.4773 C.ar    1  UNL1        0.0247
     30 C         139.1768  144.4782  163.9766 C.ar    1  UNL1        0.0012
     31 C         138.3538  143.4929  164.7524 C.ar    1  UNL1        0.0204
     32 C         137.5397  142.4614  164.0289 C.ar    1  UNL1        0.0989
     33 N         137.5487  142.4153  162.5295 N.ar    1  UNL1       -0.2426
     34 C         138.3717  143.4006  161.7538 C.ar    1  UNL1        0.0969
@<TRIPOS>BOND
     1     7     8    2
     2     8     9   am
     3     9     1    1
     4     1     2   ar
     5     2     3   ar
     6     3     4   ar
     7     4    19    1
     8    20    19    1
     9    20    21    1
    10    21    22    1
    11    23    22    1
    12    23    26    1
    13    26    27    1
    14    26    29    1
    15    29    30   ar
    16    30    31   ar
    17    31    32   ar
    18    32    33   ar
    19    33    34   ar
    20    23    24    1
    21     4     5   ar
    22     5     6   ar
    23    11     8    1
    24    11    12    1
    25    12    13    1
    26    13    14    1
    27    14    15   ar
    28    15    16   ar
    29    16    17   ar
    30    17    18   ar
    31     6     1   ar
    32    18    11    1
    33    24    20    1
    34    18    14   ar
    35    34    29   ar
    36     9    10    1
    37    27    28    1
    38    24    25    1
@<TRIPOS>MOLECULE
*****
 34 38 0 0 0
SMALL
GASTEIGER

@<TRIPOS>ATOM
      1 C         142.4182  138.4437  157.4868 C.ar    1  UNL1        0.0503
      2 C         142.8786  138.8990  158.8398 C.ar    1  UNL1        0.0143
      3 C         143.2108  140.3432  159.0722 C.ar    1  UNL1       -0.0029
      4 C         143.0826  141.3320  157.9516 C.ar    1  UNL1       -0.0208
      5 C         142.6222  140.8767  156.5985 C.ar    1  UNL1       -0.0029
      6 C         142.2900  139.4325  156.3661 C.ar    1  UNL1        0.0143
      7 O         144.3434  136.6809  156.0081 O.2     1  UNL1       -0.2744
      8 C         143.0487  136.1181  156.5150 C.2     1  UNL1        0.2313
      9 N         142.0861  136.9995  157.2543 N.am    1  UNL1       -0.2836
     10 H         141.2363  136.6301  157.5870 H       1  UNL1        0.1549
     11 C         142.7165  134.6739  156.2825 C.3     1  UNL1        0.1173
     12 C         141.6002  134.1526  155.4267 C.3     1  UNL1        0.0204
     13 C         141.6361  132.6540  155.4804 C.3     1  UNL1        0.0351
     14 C         142.7745  132.2491  156.3693 C.ar    1  UNL1        0.0227
     15 S         143.5002  131.0726  156.9518 S.2     1  UNL1       -0.0692
     16 C         144.6164  131.5939  157.8075 C.ar    1  UNL1        0.1338
     17 N         144.5806  133.0926  157.7539 N.ar    1  UNL1       -0.2405
     18 C         143.4422  133.4975  156.8650 C.ar    1  UNL1        0.0699
     19 C         143.4148  142.7762  158.1841 C.3     1  UNL1        0.0420
     20 C         142.6115  143.5827  159.1609 C.3     1  UNL1        0.0585
     21 C         141.3990  144.4048  158.8389 C.3     1  UNL1        0.0175
     22 C         140.9179  145.0390  160.1103 C.3     1  UNL1        0.0199
     23 C         141.8331  144.6087  161.2181 C.3     1  UNL1        0.0856
     24 N         142.8799  143.7087  160.6313 N.3     1  UNL1       -0.2971
     25 H         142.8328  142.7899  161.0718 H       1  UNL1        0.1233
     26 C         141.7212  145.0083  162.6595 C.3     1  UNL1        0.1484
     27 O         140.9365  146.2285  163.0409 O.3     1  UNL1       -0.3786
     28 H         140.9648  146.3433  164.0036 H       1  UNL1        0.2108
     29 C         142.3941  144.1878  163.7197 C.ar    1  UNL1        0.0247
     30 C         143.7892  144.5247  164.1562 C.ar    1  UNL1        0.0012
     31 C         144.4620  143.7041  165.2164 C.ar    1  UNL1        0.0204
     32 C         143.7399  142.5467  165.8401 C.ar    1  UNL1        0.0989
     33 N         142.3448  142.2099  165.4035 N.ar    1  UNL1       -0.2426
     34 C         141.6720  143.0304  164.3434 C.ar    1  UNL1        0.0969
@<TRIPOS>BOND
     1     7     8    2
     2     8     9   am
     3     9     1    1
     4     1     2   ar
     5     2     3   ar
     6     3     4   ar
     7     4    19    1
     8    20    19    1
     9    20    21    1
    10    21    22    1
    11    23    22    1
    12    23    26    1
    13    26    27    1
    14    26    29    1
    15    29    30   ar
    16    30    31   ar
    17    31    32   ar
    18    32    33   ar
    19    33    34   ar
    20    23    24    1
    21     4     5   ar
    22     5     6   ar
    23    11     8    1
    24    11    12    1
    25    12    13    1
    26    13    14    1
    27    14    15   ar
    28    15    16   ar
    29    16    17   ar
    30    17    18   ar
    31     6     1   ar
    32    18    11    1
    33    24    20    1
    34    18    14   ar
    35    34    29   ar
    36     9    10    1
    37    27    28    1
    38    24    25    1
@<TRIPOS>MOLECULE
*****
 34 38 0 0 0
SMALL
GASTEIGER

@<TRIPOS>ATOM
      1 C         143.3094  138.5178  159.6105 C.ar    1  UNL1        0.0503
      2 C         143.2949  137.6468  160.8316 C.ar    1  UNL1        0.0143
      3 C         143.6188  138.2321  162.1742 C.ar    1  UNL1       -0.0029
      4 C         143.9572  139.6883  162.2957 C.ar    1  UNL1       -0.0208
      5 C         143.9717  140.5594  161.0745 C.ar    1  UNL1       -0.0029
      6 C         143.6478  139.9741  159.7319 C.ar    1  UNL1        0.0143
      7 O         140.4637  138.4136  158.6665 O.2     1  UNL1       -0.2744
      8 C         141.5626  137.8805  157.7959 C.2     1  UNL1        0.2313
      9 N         142.9855  137.9325  158.2679 N.am    1  UNL1       -0.2836
     10 H         143.7068  137.5826  157.6964 H       1  UNL1        0.1549
     11 C         141.2387  137.2952  156.4533 C.3     1  UNL1        0.1173
     12 C         140.4107  137.9452  155.3846 C.3     1  UNL1        0.0204
     13 C         140.3462  137.0088  154.2145 C.3     1  UNL1        0.0351
     14 C         141.1344  135.7802  154.5599 C.ar    1  UNL1        0.0227
     15 S         141.5817  134.4423  154.0502 S.2     1  UNL1       -0.0692
     16 C         142.4097  133.7924  155.1188 C.ar    1  UNL1        0.1338
     17 N         142.4742  134.7286  156.2890 N.ar    1  UNL1       -0.2405
     18 C         141.6860  135.9572  155.9436 C.ar    1  UNL1        0.0699
     19 C         144.2810  140.2736  163.6382 C.3     1  UNL1        0.0420
     20 C         143.3837  140.0048  164.8098 C.3     1  UNL1        0.0585
     21 C         143.6955  139.1092  165.9719 C.3     1  UNL1        0.0175
     22 C         142.5215  139.1353  166.9053 C.3     1  UNL1        0.0199
     23 C         141.4843  140.0471  166.3200 C.3     1  UNL1        0.0856
     24 N         142.0171  140.5845  165.0249 N.3     1  UNL1       -0.2971
     25 H         142.0759  141.6018  165.0703 H       1  UNL1        0.1233
     26 C         140.1486  140.3657  166.9238 C.3     1  UNL1        0.1484
     27 O         138.8945  139.8419  166.2891 O.3     1  UNL1       -0.3786
     28 H         138.1253  140.1376  166.8008 H       1  UNL1        0.2108
     29 C         140.0670  141.2080  168.1623 C.ar    1  UNL1        0.0247
     30 C         140.5467  142.6290  168.1358 C.ar    1  UNL1        0.0012
     31 C         140.4651  143.4713  169.3743 C.ar    1  UNL1        0.0204
     32 C         139.9039  142.8926  170.6393 C.ar    1  UNL1        0.0989
     33 N         139.4243  141.4716  170.6657 N.ar    1  UNL1       -0.2426
     34 C         139.5059  140.6293  169.4273 C.ar    1  UNL1        0.0969
@<TRIPOS>BOND
     1     7     8    2
     2     8     9   am
     3     9     1    1
     4     1     2   ar
     5     2     3   ar
     6     3     4   ar
     7     4    19    1
     8    20    19    1
     9    20    21    1
    10    21    22    1
    11    23    22    1
    12    23    26    1
    13    26    27    1
    14    26    29    1
    15    29    30   ar
    16    30    31   ar
    17    31    32   ar
    18    32    33   ar
    19    33    34   ar
    20    23    24    1
    21     4     5   ar
    22     5     6   ar
    23    11     8    1
    24    11    12    1
    25    12    13    1
    26    13    14    1
    27    14    15   ar
    28    15    16   ar
    29    16    17   ar
    30    17    18   ar
    31     6     1   ar
    32    18    11    1
    33    24    20    1
    34    18    14   ar
    35    34    29   ar
    36     9    10    1
    37    27    28    1
    38    24    25    1
