@<TRIPOS>MOLECULE
*****
 28 31 0 0 0
SMALL
GASTEIGER

@<TRIPOS>ATOM
      1 C         137.3362  138.0781  167.2427 C.3     1  UNL1        0.0420
      2 C         138.2954  139.1297  166.7693 C.3     1  UNL1        0.1913
      3 O         138.3876  139.4577  165.3085 O.3     1  UNL1       -0.3500
      4 C         139.3469  140.5093  164.8350 C.3     1  UNL1        0.1145
      5 C         140.3061  141.5609  164.3616 C.3     1  UNL1        0.0463
      6 C         140.3983  141.8889  162.9009 C.3     1  UNL1        0.0746
      7 N         139.5313  141.1654  161.9135 N.3     1  UNL1       -0.2722
      8 C         138.5721  140.1139  162.3869 C.3     1  UNL1        0.0746
      9 C         138.4799  139.7858  163.8477 C.3     1  UNL1        0.0463
     10 C         140.2139  141.2328  165.8224 C.3     1  UNL1        0.1268
     11 N         140.1216  140.9047  167.2832 N.am    1  UNL1       -0.2377
     12 C         139.1624  139.8532  167.7566 C.2     1  UNL1        0.2577
     13 O         139.0702  139.5251  169.2174 O.2     1  UNL1       -0.2719
     14 C         140.9886  141.6282  168.2706 C.ar    1  UNL1        0.1652
     15 N         140.4507  142.8162  169.0118 N.ar    1  UNL1       -0.2265
     16 C         141.3177  143.5397  169.9992 C.ar    1  UNL1        0.1005
     17 C         142.7226  143.0752  170.2453 C.ar    1  UNL1        0.0231
     18 C         143.2605  141.8873  169.5040 C.ar    1  UNL1        0.0341
     19 C         142.3936  141.1638  168.5167 C.ar    1  UNL1        0.1719
     20 F         142.9314  139.9758  167.7754 F       1  UNL1       -0.2012
     21 C         139.6236  141.4935  160.4527 C.3     1  UNL1        0.0768
     22 C         140.6497  140.8144  159.5949 C.3     1  UNL1        0.0437
     23 C         141.7260  139.9836  160.2285 C.ar    1  UNL1       -0.0208
     24 C         143.0345  140.6125  160.6058 C.ar    1  UNL1       -0.0042
     25 C         144.1108  139.7818  161.2393 C.ar    1  UNL1       -0.0003
     26 C         143.8786  138.3222  161.4956 C.ar    1  UNL1       -0.0000
     27 C         142.5701  137.6933  161.1184 C.ar    1  UNL1       -0.0003
     28 C         141.4938  138.5241  160.4848 C.ar    1  UNL1       -0.0042
@<TRIPOS>BOND
     1     1     2    1
     2     2     3    1
     3     3     4    1
     4     4     5    1
     5     5     6    1
     6     6     7    1
     7     7    21    1
     8    21    22    1
     9    22    23    1
    10    23    24   ar
    11    24    25   ar
    12    25    26   ar
    13    26    27   ar
    14    27    28   ar
    15     7     8    1
    16     8     9    1
    17     4    10    1
    18    10    11    1
    19    11    14    1
    20    14    15   ar
    21    15    16   ar
    22    16    17   ar
    23    17    18   ar
    24    18    19   ar
    25    19    20    1
    26    11    12   am
    27    12    13    2
    28    12     2    1
    29     9     4    1
    30    19    14   ar
    31    28    23   ar
@<TRIPOS>MOLECULE
*****
 28 31 0 0 0
SMALL
GASTEIGER

@<TRIPOS>ATOM
      1 C         137.4478  138.1265  167.0372 C.3     1  UNL1        0.0420
      2 C         138.2796  139.3070  166.6311 C.3     1  UNL1        0.1913
      3 O         138.2062  139.8285  165.2266 O.3     1  UNL1       -0.3500
      4 C         139.0379  141.0090  164.8205 C.3     1  UNL1        0.1145
      5 C         139.8697  142.1894  164.4144 C.3     1  UNL1        0.0463
      6 C         139.7963  142.7109  163.0100 C.3     1  UNL1        0.0746
      7 N         138.8912  142.0521  162.0116 N.3     1  UNL1       -0.2722
      8 C         138.0595  140.8717  162.4176 C.3     1  UNL1        0.0746
      9 C         138.1329  140.3502  163.8221 C.3     1  UNL1        0.0463
     10 C         139.9430  141.6678  165.8189 C.3     1  UNL1        0.1268
     11 N         140.0163  141.1462  167.2234 N.am    1  UNL1       -0.2377
     12 C         139.1846  139.9658  167.6295 C.2     1  UNL1        0.2577
     13 O         139.2580  139.4441  169.0340 O.2     1  UNL1       -0.2719
     14 C         140.9214  141.8050  168.2218 C.ar    1  UNL1        0.1652
     15 N         140.3967  142.9013  169.1008 N.ar    1  UNL1       -0.2265
     16 C         141.3018  143.5601  170.0992 C.ar    1  UNL1        0.1005
     17 C         142.7315  143.1226  170.2186 C.ar    1  UNL1        0.0231
     18 C         143.2563  142.0262  169.3396 C.ar    1  UNL1        0.0341
     19 C         142.3512  141.3674  168.3412 C.ar    1  UNL1        0.1719
     20 F         142.8759  140.2710  167.4622 F       1  UNL1       -0.2012
     21 C         138.8179  142.5737  160.6071 C.3     1  UNL1        0.0768
     22 C         140.0062  143.2568  159.9977 C.3     1  UNL1        0.0437
     23 C         139.8567  144.0192  158.7145 C.ar    1  UNL1       -0.0208
     24 C         139.1975  143.3745  157.5315 C.ar    1  UNL1       -0.0042
     25 C         139.0480  144.1370  156.2484 C.ar    1  UNL1       -0.0003
     26 C         139.5577  145.5442  156.1484 C.ar    1  UNL1       -0.0000
     27 C         140.2169  146.1889  157.3315 C.ar    1  UNL1       -0.0003
     28 C         140.3664  145.4264  158.6146 C.ar    1  UNL1       -0.0042
@<TRIPOS>BOND
     1     1     2    1
     2     2     3    1
     3     3     4    1
     4     4     5    1
     5     5     6    1
     6     6     7    1
     7     7    21    1
     8    21    22    1
     9    22    23    1
    10    23    24   ar
    11    24    25   ar
    12    25    26   ar
    13    26    27   ar
    14    27    28   ar
    15     7     8    1
    16     8     9    1
    17     4    10    1
    18    10    11    1
    19    11    14    1
    20    14    15   ar
    21    15    16   ar
    22    16    17   ar
    23    17    18   ar
    24    18    19   ar
    25    19    20    1
    26    11    12   am
    27    12    13    2
    28    12     2    1
    29     9     4    1
    30    19    14   ar
    31    28    23   ar
@<TRIPOS>MOLECULE
*****
 28 31 0 0 0
SMALL
GASTEIGER

@<TRIPOS>ATOM
      1 C         139.2178  144.8974  164.5370 C.3     1  UNL1        0.0420
      2 C         140.1872  144.3051  163.5575 C.3     1  UNL1        0.1913
      3 O         140.2031  144.7829  162.1358 O.3     1  UNL1       -0.3500
      4 C         141.1726  144.1906  161.1562 C.3     1  UNL1        0.1145
      5 C         142.1420  143.5982  160.1768 C.3     1  UNL1        0.0463
      6 C         142.1579  144.0760  158.7550 C.3     1  UNL1        0.0746
      7 N         141.2044  145.1462  158.3127 N.3     1  UNL1       -0.2722
      8 C         140.2350  145.7385  159.2922 C.3     1  UNL1        0.0746
      9 C         140.2191  145.2607  160.7139 C.3     1  UNL1        0.0463
     10 C         142.1261  143.1204  161.5985 C.3     1  UNL1        0.1268
     11 N         142.1102  142.6426  163.0204 N.am    1  UNL1       -0.2377
     12 C         141.1408  143.2350  163.9998 C.2     1  UNL1        0.2577
     13 O         141.1248  142.7572  165.4216 O.2     1  UNL1       -0.2719
     14 C         143.0637  141.5725  163.4627 C.ar    1  UNL1        0.1652
     15 N         142.5457  140.2178  163.8453 N.ar    1  UNL1       -0.2265
     16 C         143.4992  139.1477  164.2876 C.ar    1  UNL1        0.1005
     17 C         144.9707  139.4322  164.3473 C.ar    1  UNL1        0.0231
     18 C         145.4888  140.7870  163.9647 C.ar    1  UNL1        0.0341
     19 C         144.5353  141.8571  163.5224 C.ar    1  UNL1        0.1719
     20 F         145.0533  143.2118  163.1398 F       1  UNL1       -0.2012
     21 C         141.2203  145.6240  156.8909 C.3     1  UNL1        0.0768
     22 C         139.9307  145.9246  156.1862 C.3     1  UNL1        0.0437
     23 C         139.5672  147.3430  155.8602 C.ar    1  UNL1       -0.0208
     24 C         139.9541  147.9308  154.5356 C.ar    1  UNL1       -0.0042
     25 C         139.5906  149.3491  154.2096 C.ar    1  UNL1       -0.0003
     26 C         138.8401  150.1795  155.2082 C.ar    1  UNL1       -0.0000
     27 C         138.4532  149.5916  156.5328 C.ar    1  UNL1       -0.0003
     28 C         138.8167  148.1734  156.8588 C.ar    1  UNL1       -0.0042
@<TRIPOS>BOND
     1     1     2    1
     2     2     3    1
     3     3     4    1
     4     4     5    1
     5     5     6    1
     6     6     7    1
     7     7    21    1
     8    21    22    1
     9    22    23    1
    10    23    24   ar
    11    24    25   ar
    12    25    26   ar
    13    26    27   ar
    14    27    28   ar
    15     7     8    1
    16     8     9    1
    17     4    10    1
    18    10    11    1
    19    11    14    1
    20    14    15   ar
    21    15    16   ar
    22    16    17   ar
    23    17    18   ar
    24    18    19   ar
    25    19    20    1
    26    11    12   am
    27    12    13    2
    28    12     2    1
    29     9     4    1
    30    19    14   ar
    31    28    23   ar
@<TRIPOS>MOLECULE
*****
 28 31 0 0 0
SMALL
GASTEIGER

@<TRIPOS>ATOM
      1 C         137.0939  137.9670  167.3133 C.3     1  UNL1        0.0420
      2 C         138.1737  138.8783  166.8096 C.3     1  UNL1        0.1913
      3 O         138.4107  139.0171  165.3350 O.3     1  UNL1       -0.3500
      4 C         139.4905  139.9284  164.8313 C.3     1  UNL1        0.1145
      5 C         140.5703  140.8397  164.3278 C.3     1  UNL1        0.0463
      6 C         140.8073  140.9785  162.8532 C.3     1  UNL1        0.0746
      7 N         139.9645  140.2059  161.8821 N.3     1  UNL1       -0.2722
      8 C         138.8847  139.2946  162.3857 C.3     1  UNL1        0.0746
      9 C         138.6478  139.1559  163.8603 C.3     1  UNL1        0.0463
     10 C         140.3333  140.7010  165.8024 C.3     1  UNL1        0.1268
     11 N         140.0963  140.5622  167.2771 N.am    1  UNL1       -0.2377
     12 C         139.0165  139.6509  167.7806 C.2     1  UNL1        0.2577
     13 O         138.7795  139.5121  169.2553 O.2     1  UNL1       -0.2719
     14 C         140.9390  141.3347  168.2481 C.ar    1  UNL1        0.1652
     15 N         140.3495  142.4932  168.9967 N.ar    1  UNL1       -0.2265
     16 C         141.1923  143.2657  169.9677 C.ar    1  UNL1        0.1005
     17 C         142.6246  142.8798  170.1902 C.ar    1  UNL1        0.0231
     18 C         143.2142  141.7212  169.4417 C.ar    1  UNL1        0.0341
     19 C         142.3714  140.9487  168.4706 C.ar    1  UNL1        0.1719
     20 F         142.9609  139.7902  167.7221 F       1  UNL1       -0.2012
     21 C         140.2015  140.3447  160.4074 C.3     1  UNL1        0.0768
     22 C         139.5148  139.4195  159.4471 C.3     1  UNL1        0.0437
     23 C         140.3245  138.5982  158.4879 C.ar    1  UNL1       -0.0208
     24 C         139.6685  137.9845  157.2867 C.ar    1  UNL1       -0.0042
     25 C         140.4782  137.1632  156.3276 C.ar    1  UNL1       -0.0003
     26 C         141.9439  136.9556  156.5698 C.ar    1  UNL1       -0.0000
     27 C         142.5999  137.5692  157.7711 C.ar    1  UNL1       -0.0003
     28 C         141.7902  138.3905  158.7301 C.ar    1  UNL1       -0.0042
@<TRIPOS>BOND
     1     1     2    1
     2     2     3    1
     3     3     4    1
     4     4     5    1
     5     5     6    1
     6     6     7    1
     7     7    21    1
     8    21    22    1
     9    22    23    1
    10    23    24   ar
    11    24    25   ar
    12    25    26   ar
    13    26    27   ar
    14    27    28   ar
    15     7     8    1
    16     8     9    1
    17     4    10    1
    18    10    11    1
    19    11    14    1
    20    14    15   ar
    21    15    16   ar
    22    16    17   ar
    23    17    18   ar
    24    18    19   ar
    25    19    20    1
    26    11    12   am
    27    12    13    2
    28    12     2    1
    29     9     4    1
    30    19    14   ar
    31    28    23   ar
@<TRIPOS>MOLECULE
*****
 28 31 0 0 0
SMALL
GASTEIGER

@<TRIPOS>ATOM
      1 C         136.9957  137.9151  167.4079 C.3     1  UNL1        0.0420
      2 C         138.2312  138.5974  166.8998 C.3     1  UNL1        0.1913
      3 O         138.6730  138.3900  165.4814 O.3     1  UNL1       -0.3500
      4 C         139.9085  139.0723  164.9733 C.3     1  UNL1        0.1145
      5 C         141.1439  139.7546  164.4652 C.3     1  UNL1        0.0463
      6 C         141.5856  139.5471  163.0468 C.3     1  UNL1        0.0746
      7 N         140.7920  138.6574  162.1366 N.3     1  UNL1       -0.2722
      8 C         139.5566  137.9752  162.6446 C.3     1  UNL1        0.0746
      9 C         139.1148  138.1826  164.0630 C.3     1  UNL1        0.0463
     10 C         140.7021  139.9620  165.8835 C.3     1  UNL1        0.1268
     11 N         140.2603  140.1694  167.3019 N.am    1  UNL1       -0.2377
     12 C         139.0248  139.4871  167.8100 C.2     1  UNL1        0.2577
     13 O         138.5830  139.6945  169.2285 O.2     1  UNL1       -0.2719
     14 C         141.0539  141.0591  168.2122 C.ar    1  UNL1        0.1652
     15 N         140.4772  142.3638  168.6757 N.ar    1  UNL1       -0.2265
     16 C         141.2708  143.2535  169.5859 C.ar    1  UNL1        0.1005
     17 C         142.6412  142.8384  170.0327 C.ar    1  UNL1        0.0231
     18 C         143.2180  141.5336  169.5693 C.ar    1  UNL1        0.0341
     19 C         142.4244  140.6439  168.6590 C.ar    1  UNL1        0.1719
     20 F         143.0011  139.3391  168.1956 F       1  UNL1       -0.2012
     21 C         141.2338  138.4501  160.7181 C.3     1  UNL1        0.0768
     22 C         140.9184  139.4816  159.6759 C.3     1  UNL1        0.0437
     23 C         140.4127  140.8328  160.0868 C.ar    1  UNL1       -0.0208
     24 C         141.3692  141.9789  160.2332 C.ar    1  UNL1       -0.0042
     25 C         140.8636  143.3299  160.6441 C.ar    1  UNL1       -0.0003
     26 C         139.4014  143.5349  160.9086 C.ar    1  UNL1       -0.0000
     27 C         138.4448  142.3888  160.7622 C.ar    1  UNL1       -0.0003
     28 C         138.9505  141.0377  160.3513 C.ar    1  UNL1       -0.0042
@<TRIPOS>BOND
     1     1     2    1
     2     2     3    1
     3     3     4    1
     4     4     5    1
     5     5     6    1
     6     6     7    1
     7     7    21    1
     8    21    22    1
     9    22    23    1
    10    23    24   ar
    11    24    25   ar
    12    25    26   ar
    13    26    27   ar
    14    27    28   ar
    15     7     8    1
    16     8     9    1
    17     4    10    1
    18    10    11    1
    19    11    14    1
    20    14    15   ar
    21    15    16   ar
    22    16    17   ar
    23    17    18   ar
    24    18    19   ar
    25    19    20    1
    26    11    12   am
    27    12    13    2
    28    12     2    1
    29     9     4    1
    30    19    14   ar
    31    28    23   ar
@<TRIPOS>MOLECULE
*****
 28 31 0 0 0
SMALL
GASTEIGER

@<TRIPOS>ATOM
      1 C         137.7022  138.1120  166.6226 C.3     1  UNL1        0.0420
      2 C         139.0906  138.6409  166.4159 C.3     1  UNL1        0.1913
      3 O         139.8459  138.2971  165.1664 O.3     1  UNL1       -0.3500
      4 C         141.2343  138.8260  164.9598 C.3     1  UNL1        0.1145
      5 C         142.6226  139.3550  164.7531 C.3     1  UNL1        0.0463
      6 C         143.3779  139.0112  163.5037 C.3     1  UNL1        0.0746
      7 N         142.7450  138.1383  162.4608 N.3     1  UNL1       -0.2722
      8 C         141.3567  137.6094  162.6675 C.3     1  UNL1        0.0746
      9 C         140.6013  137.9532  163.9169 C.3     1  UNL1        0.0463
     10 C         141.8673  139.6989  166.0026 C.3     1  UNL1        0.1268
     11 N         141.1119  140.0427  167.2521 N.am    1  UNL1       -0.2377
     12 C         139.7236  139.5138  167.4587 C.2     1  UNL1        0.2577
     13 O         138.9682  139.8576  168.7082 O.2     1  UNL1       -0.2719
     14 C         141.7449  140.9156  168.2949 C.ar    1  UNL1        0.1652
     15 N         142.8807  140.3917  169.1228 N.ar    1  UNL1       -0.2265
     16 C         143.5137  141.2645  170.1656 C.ar    1  UNL1        0.1005
     17 C         143.0109  142.6612  170.3806 C.ar    1  UNL1        0.0231
     18 C         141.8750  143.1852  169.5527 C.ar    1  UNL1        0.0341
     19 C         141.2420  142.3124  168.5098 C.ar    1  UNL1        0.1719
     20 F         140.1062  142.8363  167.6819 F       1  UNL1       -0.2012
     21 C         143.5004  137.7945  161.2113 C.3     1  UNL1        0.0768
     22 C         143.3289  138.6299  159.9774 C.3     1  UNL1        0.0437
     23 C         142.2858  138.2646  158.9632 C.ar    1  UNL1       -0.0208
     24 C         142.6562  137.4286  157.7741 C.ar    1  UNL1       -0.0042
     25 C         141.6131  137.0633  156.7600 C.ar    1  UNL1       -0.0003
     26 C         140.1997  137.5340  156.9349 C.ar    1  UNL1       -0.0000
     27 C         139.8293  138.3700  158.1240 C.ar    1  UNL1       -0.0003
     28 C         140.8724  138.7353  159.1381 C.ar    1  UNL1       -0.0042
@<TRIPOS>BOND
     1     1     2    1
     2     2     3    1
     3     3     4    1
     4     4     5    1
     5     5     6    1
     6     6     7    1
     7     7    21    1
     8    21    22    1
     9    22    23    1
    10    23    24   ar
    11    24    25   ar
    12    25    26   ar
    13    26    27   ar
    14    27    28   ar
    15     7     8    1
    16     8     9    1
    17     4    10    1
    18    10    11    1
    19    11    14    1
    20    14    15   ar
    21    15    16   ar
    22    16    17   ar
    23    17    18   ar
    24    18    19   ar
    25    19    20    1
    26    11    12   am
    27    12    13    2
    28    12     2    1
    29     9     4    1
    30    19    14   ar
    31    28    23   ar
@<TRIPOS>MOLECULE
*****
 28 31 0 0 0
SMALL
GASTEIGER

@<TRIPOS>ATOM
      1 C         145.6840  141.7117  163.7009 C.3     1  UNL1        0.0420
      2 C         144.1960  141.8890  163.6335 C.3     1  UNL1        0.1913
      3 O         143.3203  141.2873  164.6923 O.3     1  UNL1       -0.3500
      4 C         141.8322  141.4646  164.6249 C.3     1  UNL1        0.1145
      5 C         140.3443  141.6419  164.5575 C.3     1  UNL1        0.0463
      6 C         139.4686  141.0403  165.6162 C.3     1  UNL1        0.0746
      7 N         140.0808  140.2612  166.7424 N.3     1  UNL1       -0.2722
      8 C         141.5687  140.0839  166.8099 C.3     1  UNL1        0.0746
      9 C         142.4444  140.6856  165.7511 C.3     1  UNL1        0.0463
     10 C         141.2200  142.2436  163.4987 C.3     1  UNL1        0.1268
     11 N         142.0959  142.8453  162.4399 N.am    1  UNL1       -0.2377
     12 C         143.5838  142.6680  162.5073 C.2     1  UNL1        0.2577
     13 O         144.4596  143.2697  161.4485 O.2     1  UNL1       -0.2719
     14 C         141.4837  143.6244  161.3137 C.ar    1  UNL1        0.1652
     15 N         141.4299  143.0342  159.9357 N.ar    1  UNL1       -0.2265
     16 C         140.8177  143.8132  158.8095 C.ar    1  UNL1        0.1005
     17 C         140.2593  145.1824  159.0613 C.ar    1  UNL1        0.0231
     18 C         140.3130  145.7727  160.4393 C.ar    1  UNL1        0.0341
     19 C         140.9252  144.9936  161.5655 C.ar    1  UNL1        0.1719
     20 F         140.9790  145.5838  162.9434 F       1  UNL1       -0.2012
     21 C         139.2050  139.6595  167.8012 C.3     1  UNL1        0.0768
     22 C         139.2636  140.1787  169.2073 C.3     1  UNL1        0.0437
     23 C         140.3123  141.1789  169.5944 C.ar    1  UNL1       -0.0208
     24 C         141.6058  140.7148  170.1955 C.ar    1  UNL1       -0.0042
     25 C         142.6545  141.7150  170.5826 C.ar    1  UNL1       -0.0003
     26 C         142.4096  143.1794  170.3686 C.ar    1  UNL1       -0.0000
     27 C         141.1160  143.6435  169.7675 C.ar    1  UNL1       -0.0003
     28 C         140.0674  142.6433  169.3804 C.ar    1  UNL1       -0.0042
@<TRIPOS>BOND
     1     1     2    1
     2     2     3    1
     3     3     4    1
     4     4     5    1
     5     5     6    1
     6     6     7    1
     7     7    21    1
     8    21    22    1
     9    22    23    1
    10    23    24   ar
    11    24    25   ar
    12    25    26   ar
    13    26    27   ar
    14    27    28   ar
    15     7     8    1
    16     8     9    1
    17     4    10    1
    18    10    11    1
    19    11    14    1
    20    14    15   ar
    21    15    16   ar
    22    16    17   ar
    23    17    18   ar
    24    18    19   ar
    25    19    20    1
    26    11    12   am
    27    12    13    2
    28    12     2    1
    29     9     4    1
    30    19    14   ar
    31    28    23   ar
@<TRIPOS>MOLECULE
*****
 28 31 0 0 0
SMALL
GASTEIGER

@<TRIPOS>ATOM
      1 C         138.8248  144.6806  165.1511 C.3     1  UNL1        0.0420
      2 C         139.3459  143.8597  164.0088 C.3     1  UNL1        0.1913
      3 O         139.6077  144.5043  162.6800 O.3     1  UNL1       -0.3500
      4 C         140.1288  143.6834  161.5378 C.3     1  UNL1        0.1145
      5 C         140.6499  142.8625  160.3956 C.3     1  UNL1        0.0463
      6 C         140.9116  143.5071  159.0668 C.3     1  UNL1        0.0746
      7 N         140.6522  144.9727  158.8800 N.3     1  UNL1       -0.2722
      8 C         140.1311  145.7936  160.0222 C.3     1  UNL1        0.0746
      9 C         139.8694  145.1490  161.3510 C.3     1  UNL1        0.0463
     10 C         140.3881  142.2179  161.7245 C.3     1  UNL1        0.1268
     11 N         140.1264  141.5732  163.0534 N.am    1  UNL1       -0.2377
     12 C         139.6053  142.3942  164.1956 C.2     1  UNL1        0.2577
     13 O         139.3436  141.7495  165.5245 O.2     1  UNL1       -0.2719
     14 C         140.3858  140.1077  163.2401 C.ar    1  UNL1        0.1652
     15 N         141.7771  139.6219  163.5196 N.ar    1  UNL1       -0.2265
     16 C         142.0365  138.1563  163.7063 C.ar    1  UNL1        0.1005
     17 C         140.9045  137.1766  163.6136 C.ar    1  UNL1        0.0231
     18 C         139.5131  137.6623  163.3342 C.ar    1  UNL1        0.0341
     19 C         139.2537  139.1279  163.1474 C.ar    1  UNL1        0.1719
     20 F         137.8624  139.6137  162.8680 F       1  UNL1       -0.2012
     21 C         140.9139  145.6173  157.5511 C.3     1  UNL1        0.0768
     22 C         139.7846  145.8373  156.5888 C.3     1  UNL1        0.0437
     23 C         139.5255  147.2079  156.0370 C.ar    1  UNL1       -0.0208
     24 C         139.9963  147.5623  154.6576 C.ar    1  UNL1       -0.0042
     25 C         139.7372  148.9329  154.1059 C.ar    1  UNL1       -0.0003
     26 C         139.0074  149.9489  154.9335 C.ar    1  UNL1       -0.0000
     27 C         138.5366  149.5945  156.3128 C.ar    1  UNL1       -0.0003
     28 C         138.7957  148.2239  156.8646 C.ar    1  UNL1       -0.0042
@<TRIPOS>BOND
     1     1     2    1
     2     2     3    1
     3     3     4    1
     4     4     5    1
     5     5     6    1
     6     6     7    1
     7     7    21    1
     8    21    22    1
     9    22    23    1
    10    23    24   ar
    11    24    25   ar
    12    25    26   ar
    13    26    27   ar
    14    27    28   ar
    15     7     8    1
    16     8     9    1
    17     4    10    1
    18    10    11    1
    19    11    14    1
    20    14    15   ar
    21    15    16   ar
    22    16    17   ar
    23    17    18   ar
    24    18    19   ar
    25    19    20    1
    26    11    12   am
    27    12    13    2
    28    12     2    1
    29     9     4    1
    30    19    14   ar
    31    28    23   ar
@<TRIPOS>MOLECULE
*****
 28 31 0 0 0
SMALL
GASTEIGER

@<TRIPOS>ATOM
      1 C         144.4250  142.6222  157.6991 C.3     1  UNL1        0.0420
      2 C         144.0237  141.2919  158.2643 C.3     1  UNL1        0.1913
      3 O         144.0288  141.0753  159.7486 O.3     1  UNL1       -0.3500
      4 C         143.6275  139.7451  160.3138 C.3     1  UNL1        0.1145
      5 C         143.2262  138.4149  160.8789 C.3     1  UNL1        0.0463
      6 C         143.2312  138.1983  162.3632 C.3     1  UNL1        0.0746
      7 N         143.6376  139.3119  163.2823 N.3     1  UNL1       -0.2722
      8 C         144.0389  140.6421  162.7171 C.3     1  UNL1        0.0746
      9 C         144.0338  140.8587  161.2329 C.3     1  UNL1        0.0463
     10 C         143.2211  138.6314  159.3947 C.3     1  UNL1        0.1268
     11 N         143.2161  138.8481  157.9104 N.am    1  UNL1       -0.2377
     12 C         143.6174  140.1783  157.3452 C.2     1  UNL1        0.2577
     13 O         143.6123  140.3950  155.8609 O.2     1  UNL1       -0.2719
     14 C         142.8097  137.7345  156.9913 C.ar    1  UNL1        0.1652
     15 N         143.8527  136.9754  156.2259 N.ar    1  UNL1       -0.2265
     16 C         143.4464  135.8617  155.3068 C.ar    1  UNL1        0.1005
     17 C         141.9970  135.5072  155.1531 C.ar    1  UNL1        0.0231
     18 C         140.9539  136.2664  155.9185 C.ar    1  UNL1        0.0341
     19 C         141.3603  137.3800  156.8376 C.ar    1  UNL1        0.1719
     20 F         140.3173  138.1391  157.6030 F       1  UNL1       -0.2012
     21 C         143.6426  139.0952  164.7666 C.3     1  UNL1        0.0768
     22 C         142.6792  138.1270  165.3865 C.3     1  UNL1        0.0437
     23 C         141.2309  138.4933  165.5227 C.ar    1  UNL1       -0.0208
     24 C         140.8265  139.6379  166.4038 C.ar    1  UNL1       -0.0042
     25 C         139.3783  140.0042  166.5400 C.ar    1  UNL1       -0.0003
     26 C         138.3346  139.2259  165.7951 C.ar    1  UNL1       -0.0000
     27 C         138.7390  138.0813  164.9140 C.ar    1  UNL1       -0.0003
     28 C         140.1872  137.7150  164.7778 C.ar    1  UNL1       -0.0042
@<TRIPOS>BOND
     1     1     2    1
     2     2     3    1
     3     3     4    1
     4     4     5    1
     5     5     6    1
     6     6     7    1
     7     7    21    1
     8    21    22    1
     9    22    23    1
    10    23    24   ar
    11    24    25   ar
    12    25    26   ar
    13    26    27   ar
    14    27    28   ar
    15     7     8    1
    16     8     9    1
    17     4    10    1
    18    10    11    1
    19    11    14    1
    20    14    15   ar
    21    15    16   ar
    22    16    17   ar
    23    17    18   ar
    24    18    19   ar
    25    19    20    1
    26    11    12   am
    27    12    13    2
    28    12     2    1
    29     9     4    1
    30    19    14   ar
    31    28    23   ar
