@<TRIPOS>MOLECULE
*****
 29 31 0 0 0
SMALL
GASTEIGER

@<TRIPOS>ATOM
      1 C         143.8857  142.4433  164.6478 C.ar    1  UNL1        0.1491
      2 C         142.7307  142.0969  165.5401 C.ar    1  UNL1        0.0398
      3 C         142.5155  140.6763  165.9709 C.ar    1  UNL1        0.0283
      4 C         143.4554  139.6021  165.5094 C.ar    1  UNL1        0.0598
      5 CL        143.2401  138.1815  165.9403 Cl      1  UNL1       -0.0822
      6 C         144.6102  139.9485  164.6172 C.ar    1  UNL1        0.0259
      7 C         144.8254  141.3691  164.1863 C.ar    1  UNL1        0.0924
      8 CL        145.9803  141.7155  163.2941 Cl      1  UNL1       -0.0791
      9 C         141.3606  140.3299  166.8632 C.2     1  UNL1        0.0806
     10 N         141.4921  140.4746  168.3504 N.2     1  UNL1       -0.2021
     11 C         140.3372  140.1282  169.2427 C.2     1  UNL1        0.3035
     12 N         139.0508  139.6371  168.6478 N.2     1  UNL1       -0.0109
     13 C         138.9194  139.4924  167.1605 C.2     1  UNL1        0.3639
     14 N         137.7839  139.0362  166.2929 N.2     1  UNL1       -0.0335
     15 C         138.2370  139.1007  164.8645 C.2     1  UNL1        0.2424
     16 C         139.6526  139.5967  164.8493 C.2     1  UNL1        0.1101
     17 C         140.0742  139.8388  166.2683 C.3     1  UNL1        0.1876
     18 S         140.4687  140.2729  170.7299 S.3     1  UNL1       -0.0472
     19 C         141.5772  141.1021  171.3076 C.3     1  UNL1        0.0795
     20 C         140.4980  139.8128  163.6292 C.1     1  UNL1        0.1009
     21 N         141.3435  140.0288  162.4091 N.1     1  UNL1       -0.1910
     22 O         144.1008  143.8639  164.2170 O.3     1  UNL1       -0.4731
     23 C         143.1851  144.4879  163.2060 C.3     1  UNL1        0.2227
     24 C         142.1379  145.4675  163.6463 C.3     1  UNL1        0.1200
     25 N         140.6865  145.1693  163.4127 N.3     1  UNL1       -0.2696
     26 C         138.7729  144.7709  165.1242 C.3     1  UNL1        0.0188
     27 C         139.9485  144.2571  164.3471 C.3     1  UNL1        0.0722
     28 C         139.9732  145.7833  162.2448 C.3     1  UNL1        0.0722
     29 C         140.4273  145.4840  160.8469 C.3     1  UNL1        0.0188
@<TRIPOS>BOND
     1    26    27    1
     2    27    25    1
     3    25    28    1
     4    28    29    1
     5    25    24    1
     6    24    23    1
     7    23    22    1
     8    22     1    1
     9     1     2   ar
    10     2     3   ar
    11     3     9    1
    12     9    10    2
    13    10    11    1
    14    11    18    1
    15    18    19    1
    16    11    12    2
    17    12    13    1
    18    13    14    2
    19    14    15    1
    20    15    16    2
    21    16    20    1
    22    20    21    3
    23    16    17    1
    24     3     4   ar
    25     4     5    1
    26     4     6   ar
    27     6     7   ar
    28     7     8    1
    29     7     1   ar
    30    17     9    1
    31    17    13    1
@<TRIPOS>MOLECULE
*****
 29 31 0 0 0
SMALL
GASTEIGER

@<TRIPOS>ATOM
      1 C         142.3508  140.8014  162.3066 C.ar    1  UNL1        0.1491
      2 C         141.6704  141.0306  163.6237 C.ar    1  UNL1        0.0398
      3 C         141.9504  140.1186  164.7812 C.ar    1  UNL1        0.0283
      4 C         142.9108  138.9773  164.6216 C.ar    1  UNL1        0.0598
      5 CL        143.1907  138.0653  165.7792 Cl      1  UNL1       -0.0822
      6 C         143.5911  138.7481  163.3046 C.ar    1  UNL1        0.0259
      7 C         143.3111  139.6602  162.1470 C.ar    1  UNL1        0.0924
      8 CL        143.9914  139.4310  160.8301 Cl      1  UNL1       -0.0791
      9 C         141.2701  140.3477  166.0983 C.2     1  UNL1        0.0806
     10 N         141.8682  141.2940  167.0967 N.2     1  UNL1       -0.2021
     11 C         141.1879  141.5231  168.4138 C.2     1  UNL1        0.3035
     12 N         139.9095  140.8060  168.7324 N.2     1  UNL1       -0.0109
     13 C         139.3115  139.8597  167.7339 C.2     1  UNL1        0.3639
     14 N         138.0709  139.0172  167.7676 N.2     1  UNL1       -0.0335
     15 C         137.9845  138.2673  166.4714 C.2     1  UNL1        0.2424
     16 C         139.1717  138.6465  165.6366 C.2     1  UNL1        0.1101
     17 C         139.9918  139.6306  166.4169 C.3     1  UNL1        0.1876
     18 S         141.7859  142.4694  169.4123 S.3     1  UNL1       -0.0472
     19 C         141.7646  142.1301  170.8733 C.3     1  UNL1        0.0795
     20 C         139.4840  138.1318  164.2627 C.1     1  UNL1        0.1009
     21 N         139.7962  137.6171  162.8888 N.1     1  UNL1       -0.1910
     22 O         142.0708  141.7134  161.1492 O.3     1  UNL1       -0.4731
     23 C         142.9100  142.9390  160.9399 C.3     1  UNL1        0.2227
     24 C         144.2225  143.0799  161.6525 C.3     1  UNL1        0.1200
     25 N         144.2641  143.6389  163.0438 N.3     1  UNL1       -0.2696
     26 C         145.7551  141.6643  163.8361 C.3     1  UNL1        0.0188
     27 C         144.8820  142.8418  164.1541 C.3     1  UNL1        0.0722
     28 C         143.6879  144.9950  163.3248 C.3     1  UNL1        0.0722
     29 C         142.2757  145.1232  163.8139 C.3     1  UNL1        0.0188
@<TRIPOS>BOND
     1    26    27    1
     2    27    25    1
     3    25    28    1
     4    28    29    1
     5    25    24    1
     6    24    23    1
     7    23    22    1
     8    22     1    1
     9     1     2   ar
    10     2     3   ar
    11     3     9    1
    12     9    10    2
    13    10    11    1
    14    11    18    1
    15    18    19    1
    16    11    12    2
    17    12    13    1
    18    13    14    2
    19    14    15    1
    20    15    16    2
    21    16    20    1
    22    20    21    3
    23    16    17    1
    24     3     4   ar
    25     4     5    1
    26     4     6   ar
    27     6     7   ar
    28     7     8    1
    29     7     1   ar
    30    17     9    1
    31    17    13    1
@<TRIPOS>MOLECULE
*****
 29 31 0 0 0
SMALL
GASTEIGER

@<TRIPOS>ATOM
      1 C         140.9046  143.0521  162.0329 C.ar    1  UNL1        0.1491
      2 C         141.0535  142.3181  163.3326 C.ar    1  UNL1        0.0398
      3 C         140.3618  142.8246  164.5634 C.ar    1  UNL1        0.0283
      4 C         139.5211  144.0651  164.4945 C.ar    1  UNL1        0.0598
      5 CL        138.8294  144.5715  165.7254 Cl      1  UNL1       -0.0822
      6 C         139.3723  144.7990  163.1949 C.ar    1  UNL1        0.0259
      7 C         140.0640  144.2925  161.9640 C.ar    1  UNL1        0.0924
      8 CL        139.9152  145.0263  160.6644 Cl      1  UNL1       -0.0791
      9 C         140.5106  142.0908  165.8632 C.2     1  UNL1        0.0806
     10 N         141.5766  142.4980  166.8366 N.2     1  UNL1       -0.2021
     11 C         141.7254  141.7642  168.1364 C.2     1  UNL1        0.3035
     12 N         140.8082  140.6230  168.4626 N.2     1  UNL1       -0.0109
     13 C         139.7422  140.2157  167.4890 C.2     1  UNL1        0.3639
     14 N         138.6992  139.1387  167.5353 N.2     1  UNL1       -0.0335
     15 C         137.9057  139.2069  166.2642 C.2     1  UNL1        0.2424
     16 C         138.4584  140.3262  165.4323 C.2     1  UNL1        0.1101
     17 C         139.5934  140.9496  166.1894 C.3     1  UNL1        0.1876
     18 S         142.7915  142.1714  169.1099 S.3     1  UNL1       -0.0472
     19 C         142.4484  143.0582  170.2701 C.3     1  UNL1        0.0795
     20 C         137.9631  140.7479  164.0807 C.1     1  UNL1        0.1009
     21 N         137.4677  141.1696  162.7292 N.1     1  UNL1       -0.1910
     22 O         141.5964  142.5455  160.8021 O.3     1  UNL1       -0.4731
     23 C         142.9321  143.1038  160.4091 C.3     1  UNL1        0.2227
     24 C         144.1501  142.7769  161.2215 C.3     1  UNL1        0.1200
     25 N         144.2983  143.3317  162.6072 N.3     1  UNL1       -0.2696
     26 C         143.1850  145.2451  163.9672 C.3     1  UNL1        0.0188
     27 C         144.0862  144.7958  162.8555 C.3     1  UNL1        0.0722
     28 C         144.6585  142.4225  163.7446 C.3     1  UNL1        0.0722
     29 C         145.8920  141.5730  163.6639 C.3     1  UNL1        0.0188
@<TRIPOS>BOND
     1    26    27    1
     2    27    25    1
     3    25    28    1
     4    28    29    1
     5    25    24    1
     6    24    23    1
     7    23    22    1
     8    22     1    1
     9     1     2   ar
    10     2     3   ar
    11     3     9    1
    12     9    10    2
    13    10    11    1
    14    11    18    1
    15    18    19    1
    16    11    12    2
    17    12    13    1
    18    13    14    2
    19    14    15    1
    20    15    16    2
    21    16    20    1
    22    20    21    3
    23    16    17    1
    24     3     4   ar
    25     4     5    1
    26     4     6   ar
    27     6     7   ar
    28     7     8    1
    29     7     1   ar
    30    17     9    1
    31    17    13    1
@<TRIPOS>MOLECULE
*****
 29 31 0 0 0
SMALL
GASTEIGER

@<TRIPOS>ATOM
      1 C         139.7458  143.7965  164.4612 C.ar    1  UNL1        0.1491
      2 C         140.5857  143.0555  165.4590 C.ar    1  UNL1        0.0398
      3 C         140.1535  141.7046  165.9471 C.ar    1  UNL1        0.0283
      4 C         138.8812  141.0947  165.4374 C.ar    1  UNL1        0.0598
      5 CL        138.4491  139.7438  165.9256 Cl      1  UNL1       -0.0822
      6 C         138.0414  141.8357  164.4397 C.ar    1  UNL1        0.0259
      7 C         138.4737  143.1866  163.9515 C.ar    1  UNL1        0.0924
      8 CL        137.6338  143.9276  162.9538 Cl      1  UNL1       -0.0791
      9 C         140.9933  140.9636  166.9448 C.2     1  UNL1        0.0806
     10 N         140.8014  141.2046  168.4129 N.2     1  UNL1       -0.2021
     11 C         141.6413  140.4636  169.4106 C.2     1  UNL1        0.3035
     12 N         142.6730  139.4816  168.9404 N.2     1  UNL1       -0.0109
     13 C         142.8649  139.2406  167.4723 C.2     1  UNL1        0.3639
     14 N         143.7963  138.3401  166.7163 N.2     1  UNL1       -0.0335
     15 C         143.5321  138.5245  165.2513 C.2     1  UNL1        0.2424
     16 C         142.4373  139.5391  165.1019 C.2     1  UNL1        0.1101
     17 C         142.0250  139.9816  166.4746 C.3     1  UNL1        0.1876
     18 S         141.4494  140.7046  170.8786 S.3     1  UNL1       -0.0472
     19 C         140.7921  141.9672  171.3517 C.3     1  UNL1        0.0795
     20 C         141.8569  140.0256  163.8072 C.1     1  UNL1        0.1009
     21 N         141.2764  140.5122  162.5125 N.1     1  UNL1       -0.1910
     22 O         140.1780  145.1473  163.9731 O.3     1  UNL1       -0.4731
     23 C         141.5470  145.3306  163.3876 C.3     1  UNL1        0.2227
     24 C         142.2028  144.2033  162.6465 C.3     1  UNL1        0.1200
     25 N         143.6085  143.8023  162.9825 N.3     1  UNL1       -0.2696
     26 C         144.2210  142.8340  165.3143 C.3     1  UNL1        0.0188
     27 C         144.1324  143.9994  164.3741 C.3     1  UNL1        0.0722
     28 C         144.4905  143.2040  161.9269 C.3     1  UNL1        0.0722
     29 C         144.6589  141.7158  161.8453 C.3     1  UNL1        0.0188
@<TRIPOS>BOND
     1    26    27    1
     2    27    25    1
     3    25    28    1
     4    28    29    1
     5    25    24    1
     6    24    23    1
     7    23    22    1
     8    22     1    1
     9     1     2   ar
    10     2     3   ar
    11     3     9    1
    12     9    10    2
    13    10    11    1
    14    11    18    1
    15    18    19    1
    16    11    12    2
    17    12    13    1
    18    13    14    2
    19    14    15    1
    20    15    16    2
    21    16    20    1
    22    20    21    3
    23    16    17    1
    24     3     4   ar
    25     4     5    1
    26     4     6   ar
    27     6     7   ar
    28     7     8    1
    29     7     1   ar
    30    17     9    1
    31    17    13    1
@<TRIPOS>MOLECULE
*****
 29 31 0 0 0
SMALL
GASTEIGER

@<TRIPOS>ATOM
      1 C         142.7046  141.6734  163.3624 C.ar    1  UNL1        0.1491
      2 C         141.9310  141.6682  164.6476 C.ar    1  UNL1        0.0398
      3 C         142.1722  140.5914  165.6636 C.ar    1  UNL1        0.0283
      4 C         143.1870  139.5199  165.3946 C.ar    1  UNL1        0.0598
      5 CL        143.4280  138.4432  166.4107 Cl      1  UNL1       -0.0822
      6 C         143.9605  139.5252  164.1095 C.ar    1  UNL1        0.0259
      7 C         143.7193  140.6020  163.0933 C.ar    1  UNL1        0.0924
      8 CL        144.4928  140.6073  161.8083 Cl      1  UNL1       -0.0791
      9 C         141.3987  140.5861  166.9488 C.2     1  UNL1        0.0806
     10 N         141.9482  141.2833  168.1579 N.2     1  UNL1       -0.2021
     11 C         141.1747  141.2780  169.4430 C.2     1  UNL1        0.3035
     12 N         139.8516  140.5754  169.5191 N.2     1  UNL1       -0.0109
     13 C         139.3021  139.8782  168.3100 C.2     1  UNL1        0.3639
     14 N         138.0348  139.1079  168.0850 N.2     1  UNL1       -0.0335
     15 C         138.0250  138.6372  166.6608 C.2     1  UNL1        0.2424
     16 C         139.2864  139.1166  166.0056 C.2     1  UNL1        0.1101
     17 C         140.0756  139.8835  167.0249 C.3     1  UNL1        0.1876
     18 S         141.7243  141.9752  170.6521 S.3     1  UNL1       -0.0472
     19 C         142.7765  143.0326  170.4945 C.3     1  UNL1        0.0795
     20 C         139.6880  138.8719  164.5812 C.1     1  UNL1        0.1009
     21 N         140.0895  138.6273  163.1569 N.1     1  UNL1       -0.1910
     22 O         142.4635  142.7502  162.3463 O.3     1  UNL1       -0.4731
     23 C         141.6312  143.9459  162.7038 C.3     1  UNL1        0.2227
     24 C         140.2523  144.0977  162.1329 C.3     1  UNL1        0.1200
     25 N         139.0743  143.5095  162.8514 N.3     1  UNL1       -0.2696
     26 C         137.4413  141.5238  163.2256 C.3     1  UNL1        0.0188
     27 C         138.7112  142.0692  162.6426 C.3     1  UNL1        0.0722
     28 C         138.2593  144.3617  163.7786 C.3     1  UNL1        0.0722
     29 C         138.8206  144.7726  165.1076 C.3     1  UNL1        0.0188
@<TRIPOS>BOND
     1    26    27    1
     2    27    25    1
     3    25    28    1
     4    28    29    1
     5    25    24    1
     6    24    23    1
     7    23    22    1
     8    22     1    1
     9     1     2   ar
    10     2     3   ar
    11     3     9    1
    12     9    10    2
    13    10    11    1
    14    11    18    1
    15    18    19    1
    16    11    12    2
    17    12    13    1
    18    13    14    2
    19    14    15    1
    20    15    16    2
    21    16    20    1
    22    20    21    3
    23    16    17    1
    24     3     4   ar
    25     4     5    1
    26     4     6   ar
    27     6     7   ar
    28     7     8    1
    29     7     1   ar
    30    17     9    1
    31    17    13    1
@<TRIPOS>MOLECULE
*****
 29 31 0 0 0
SMALL
GASTEIGER

@<TRIPOS>ATOM
      1 C         141.4602  142.1498  162.0923 C.ar    1  UNL1        0.1491
      2 C         141.4403  141.6485  163.5060 C.ar    1  UNL1        0.0398
      3 C         140.5519  142.3037  164.5216 C.ar    1  UNL1        0.0283
      4 C         139.6832  143.4601  164.1234 C.ar    1  UNL1        0.0598
      5 CL        138.7948  144.1152  165.1391 Cl      1  UNL1       -0.0822
      6 C         139.7031  143.9612  162.7099 C.ar    1  UNL1        0.0259
      7 C         140.5916  143.3061  161.6942 C.ar    1  UNL1        0.0924
      8 CL        140.6115  143.8072  160.2806 Cl      1  UNL1       -0.0791
      9 C         140.5319  141.8026  165.9352 C.2     1  UNL1        0.0806
     10 N         141.4651  142.3897  166.9523 N.2     1  UNL1       -0.2021
     11 C         141.4452  141.8886  168.3660 C.2     1  UNL1        0.3035
     12 N         140.4921  140.8003  168.7626 N.2     1  UNL1       -0.0109
     13 C         139.5589  140.2132  167.7454 C.2     1  UNL1        0.3639
     14 N         138.5170  139.1383  167.8415 N.2     1  UNL1       -0.0335
     15 C         137.8930  138.9752  166.4873 C.2     1  UNL1        0.2424
     16 C         138.5493  139.9492  165.5542 C.2     1  UNL1        0.1101
     17 C         139.5789  140.7143  166.3318 C.3     1  UNL1        0.1876
     18 S         142.3783  142.4757  169.3831 S.3     1  UNL1       -0.0472
     19 C         142.1952  142.1615  170.8384 C.3     1  UNL1        0.0795
     20 C         138.2317  140.1270  164.0990 C.1     1  UNL1        0.1009
     21 N         137.9142  140.3047  162.6438 N.1     1  UNL1       -0.1910
     22 O         142.3487  141.4946  161.0768 O.3     1  UNL1       -0.4731
     23 C         143.8332  141.4611  161.2894 C.3     1  UNL1        0.2227
     24 C         144.4584  140.3198  162.0356 C.3     1  UNL1        0.1200
     25 N         144.9935  140.5329  163.4206 N.3     1  UNL1       -0.2696
     26 C         144.7514  142.8030  164.6606 C.3     1  UNL1        0.0188
     27 C         145.5577  141.8672  163.8096 C.3     1  UNL1        0.0722
     28 C         144.9646  139.4116  164.4165 C.3     1  UNL1        0.0722
     29 C         143.7110  139.1274  165.1897 C.3     1  UNL1        0.0188
@<TRIPOS>BOND
     1    26    27    1
     2    27    25    1
     3    25    28    1
     4    28    29    1
     5    25    24    1
     6    24    23    1
     7    23    22    1
     8    22     1    1
     9     1     2   ar
    10     2     3   ar
    11     3     9    1
    12     9    10    2
    13    10    11    1
    14    11    18    1
    15    18    19    1
    16    11    12    2
    17    12    13    1
    18    13    14    2
    19    14    15    1
    20    15    16    2
    21    16    20    1
    22    20    21    3
    23    16    17    1
    24     3     4   ar
    25     4     5    1
    26     4     6   ar
    27     6     7   ar
    28     7     8    1
    29     7     1   ar
    30    17     9    1
    31    17    13    1
@<TRIPOS>MOLECULE
*****
 29 31 0 0 0
SMALL
GASTEIGER

@<TRIPOS>ATOM
      1 C         139.9755  141.4985  162.4383 C.ar    1  UNL1        0.1491
      2 C         140.6006  141.4521  163.8011 C.ar    1  UNL1        0.0398
      3 C         139.9663  140.6380  164.8897 C.ar    1  UNL1        0.0283
      4 C         138.7070  139.8704  164.6155 C.ar    1  UNL1        0.0598
      5 CL        138.0729  139.0564  165.7042 Cl      1  UNL1       -0.0822
      6 C         138.0821  139.9169  163.2528 C.ar    1  UNL1        0.0259
      7 C         138.7163  140.7310  162.1641 C.ar    1  UNL1        0.0924
      8 CL        138.0913  140.7774  160.8014 Cl      1  UNL1       -0.0791
      9 C         140.5913  140.5915  166.2525 C.2     1  UNL1        0.0806
     10 N         140.0817  141.4874  167.3423 N.2     1  UNL1       -0.2021
     11 C         140.7067  141.4409  168.7051 C.2     1  UNL1        0.3035
     12 N         141.8413  140.4985  168.9782 N.2     1  UNL1       -0.0109
     13 C         142.3509  139.6026  167.8883 C.2     1  UNL1        0.3639
     14 N         143.4469  138.5788  167.8609 N.2     1  UNL1       -0.0335
     15 C         143.4993  137.9926  166.4813 C.2     1  UNL1        0.2424
     16 C         142.4356  138.6541  165.6559 C.2     1  UNL1        0.1101
     17 C         141.7259  139.6491  166.5256 C.3     1  UNL1        0.1876
     18 S         140.1971  142.3368  169.7949 S.3     1  UNL1       -0.0472
     19 C         140.7218  143.7363  169.9220 C.3     1  UNL1        0.0795
     20 C         142.1345  138.3704  164.2141 C.1     1  UNL1        0.1009
     21 N         141.8335  138.0866  162.7723 N.1     1  UNL1       -0.1910
     22 O         140.6097  142.3125  161.3497 O.3     1  UNL1       -0.4731
     23 C         140.0678  143.6710  161.0164 C.3     1  UNL1        0.2227
     24 C         139.2645  144.4280  162.0322 C.3     1  UNL1        0.1200
     25 N         139.9124  144.9006  163.2997 N.3     1  UNL1       -0.2696
     26 C         142.4529  144.6950  163.8030 C.3     1  UNL1        0.0188
     27 C         141.2949  145.4814  163.2640 C.3     1  UNL1        0.0722
     28 C         139.1778  144.7925  164.6031 C.3     1  UNL1        0.0722
     29 C         137.8811  144.0418  164.6731 C.3     1  UNL1        0.0188
@<TRIPOS>BOND
     1    26    27    1
     2    27    25    1
     3    25    28    1
     4    28    29    1
     5    25    24    1
     6    24    23    1
     7    23    22    1
     8    22     1    1
     9     1     2   ar
    10     2     3   ar
    11     3     9    1
    12     9    10    2
    13    10    11    1
    14    11    18    1
    15    18    19    1
    16    11    12    2
    17    12    13    1
    18    13    14    2
    19    14    15    1
    20    15    16    2
    21    16    20    1
    22    20    21    3
    23    16    17    1
    24     3     4   ar
    25     4     5    1
    26     4     6   ar
    27     6     7   ar
    28     7     8    1
    29     7     1   ar
    30    17     9    1
    31    17    13    1
@<TRIPOS>MOLECULE
*****
 29 31 0 0 0
SMALL
GASTEIGER

@<TRIPOS>ATOM
      1 C         142.7890  142.6259  163.4275 C.ar    1  UNL1        0.1491
      2 C         142.3934  142.0096  164.7366 C.ar    1  UNL1        0.0398
      3 C         141.1890  142.5188  165.4716 C.ar    1  UNL1        0.0283
      4 C         140.3803  143.6442  164.8975 C.ar    1  UNL1        0.0598
      5 CL        139.1759  144.1533  165.6326 Cl      1  UNL1       -0.0822
      6 C         140.7759  144.2604  163.5885 C.ar    1  UNL1        0.0259
      7 C         141.9804  143.7513  162.8534 C.ar    1  UNL1        0.0924
      8 CL        142.3760  144.3674  161.5444 Cl      1  UNL1       -0.0791
      9 C         140.7933  141.9026  166.7807 C.2     1  UNL1        0.0806
     10 N         141.3981  142.4035  168.0587 N.2     1  UNL1       -0.2021
     11 C         141.0024  141.7873  169.3678 C.2     1  UNL1        0.3035
     12 N         140.0019  140.6702  169.3989 N.2     1  UNL1       -0.0109
     13 C         139.3970  140.1693  168.1208 C.2     1  UNL1        0.3639
     14 N         138.3932  139.0905  167.8406 N.2     1  UNL1       -0.0335
     15 C         138.1685  139.0399  166.3585 C.2     1  UNL1        0.2424
     16 C         139.0335  140.0875  165.7226 C.2     1  UNL1        0.1101
     17 C         139.7927  140.7855  166.8118 C.3     1  UNL1        0.1876
     18 S         141.6073  142.2881  170.6458 S.3     1  UNL1       -0.0472
     19 C         142.8789  143.0831  170.6126 C.3     1  UNL1        0.0795
     20 C         139.1235  140.3849  164.2551 C.1     1  UNL1        0.1009
     21 N         139.2134  140.6823  162.7876 N.1     1  UNL1       -0.1910
     22 O         143.9934  142.1168  162.6925 O.3     1  UNL1       -0.4731
     23 C         144.5699  140.7751  163.0358 C.3     1  UNL1        0.2227
     24 C         143.7872  139.5274  162.7512 C.3     1  UNL1        0.1200
     25 N         143.2075  138.7314  163.8827 N.3     1  UNL1       -0.2696
     26 C         143.0644  138.8258  166.4750 C.3     1  UNL1        0.0188
     27 C         143.8831  138.7296  165.2219 C.3     1  UNL1        0.0722
     28 C         141.9521  137.9371  163.6749 C.3     1  UNL1        0.0722
     29 C         141.4149  137.7322  162.2895 C.3     1  UNL1        0.0188
@<TRIPOS>BOND
     1    26    27    1
     2    27    25    1
     3    25    28    1
     4    28    29    1
     5    25    24    1
     6    24    23    1
     7    23    22    1
     8    22     1    1
     9     1     2   ar
    10     2     3   ar
    11     3     9    1
    12     9    10    2
    13    10    11    1
    14    11    18    1
    15    18    19    1
    16    11    12    2
    17    12    13    1
    18    13    14    2
    19    14    15    1
    20    15    16    2
    21    16    20    1
    22    20    21    3
    23    16    17    1
    24     3     4   ar
    25     4     5    1
    26     4     6   ar
    27     6     7   ar
    28     7     8    1
    29     7     1   ar
    30    17     9    1
    31    17    13    1
@<TRIPOS>MOLECULE
*****
 29 31 0 0 0
SMALL
GASTEIGER

@<TRIPOS>ATOM
      1 C         143.2727  142.3938  167.0798 C.ar    1  UNL1        0.1491
      2 C         142.4153  141.9136  165.9465 C.ar    1  UNL1        0.0398
      3 C         141.2377  141.0260  166.2209 C.ar    1  UNL1        0.0283
      4 C         140.9176  140.6185  167.6286 C.ar    1  UNL1        0.0598
      5 CL        139.7399  139.7308  167.9030 Cl      1  UNL1       -0.0822
      6 C         141.7749  141.0987  168.7618 C.ar    1  UNL1        0.0259
      7 C         142.9526  141.9864  168.4874 C.ar    1  UNL1        0.0924
      8 CL        143.8100  142.4666  169.6206 Cl      1  UNL1       -0.0791
      9 C         140.3803  140.5457  165.0877 C.2     1  UNL1        0.0806
     10 N         139.2774  141.4153  164.5609 N.2     1  UNL1       -0.2021
     11 C         138.4200  140.9351  163.4277 C.2     1  UNL1        0.3035
     12 N         138.6653  139.5853  162.8213 N.2     1  UNL1       -0.0109
     13 C         139.7682  138.7157  163.3482 C.2     1  UNL1        0.3639
     14 N         140.2436  137.3486  162.9543 N.2     1  UNL1       -0.0335
     15 C         141.3948  136.9839  163.8440 C.2     1  UNL1        0.2424
     16 C         141.6309  138.1257  164.7878 C.2     1  UNL1        0.1101
     17 C         140.6256  139.1959  164.4813 C.3     1  UNL1        0.1876
     18 S         137.3171  141.8047  162.9009 S.3     1  UNL1       -0.0472
     19 C         137.5952  143.2349  162.5443 C.3     1  UNL1        0.0795
     20 C         142.6869  138.1864  165.8514 C.1     1  UNL1        0.1009
     21 N         143.7429  138.2472  166.9149 N.1     1  UNL1       -0.1910
     22 O         144.4503  143.2815  166.8053 O.3     1  UNL1       -0.4731
     23 C         144.8011  143.6471  165.3934 C.3     1  UNL1        0.2227
     24 C         145.2954  142.5937  164.4466 C.3     1  UNL1        0.1200
     25 N         144.8151  142.5775  163.0257 N.3     1  UNL1       -0.2696
     26 C         143.7372  140.2590  162.5646 C.3     1  UNL1        0.0188
     27 C         144.7844  141.2886  162.2591 C.3     1  UNL1        0.0722
     28 C         144.3655  143.8502  162.3714 C.3     1  UNL1        0.0722
     29 C         142.9017  144.1531  162.2471 C.3     1  UNL1        0.0188
@<TRIPOS>BOND
     1    26    27    1
     2    27    25    1
     3    25    28    1
     4    28    29    1
     5    25    24    1
     6    24    23    1
     7    23    22    1
     8    22     1    1
     9     1     2   ar
    10     2     3   ar
    11     3     9    1
    12     9    10    2
    13    10    11    1
    14    11    18    1
    15    18    19    1
    16    11    12    2
    17    12    13    1
    18    13    14    2
    19    14    15    1
    20    15    16    2
    21    16    20    1
    22    20    21    3
    23    16    17    1
    24     3     4   ar
    25     4     5    1
    26     4     6   ar
    27     6     7   ar
    28     7     8    1
    29     7     1   ar
    30    17     9    1
    31    17    13    1
