@<TRIPOS>MOLECULE
*****
 30 33 0 0 0
SMALL
GASTEIGER

@<TRIPOS>ATOM
      1 C         138.4680  145.2329  162.4773 C.3     1  UNL1        0.0281
      2 C         139.4740  144.1698  162.1491 C.3     1  UNL1        0.1170
      3 C         140.1605  144.1728  160.8155 C.ar    1  UNL1        0.0907
      4 N         140.0512  145.0884  159.6324 N.ar    1  UNL1       -0.2267
      5 C         140.9897  144.5911  158.5732 C.ar    1  UNL1        0.1834
      6 N         141.6790  143.3681  159.1016 N.ar    1  UNL1       -0.2768
      7 C         141.1665  143.1096  160.4874 C.ar    1  UNL1        0.0610
      8 C         141.4860  142.0434  161.4930 C.3     1  UNL1        0.0670
      9 C         140.7994  142.0404  162.8266 C.3     1  UNL1        0.1003
     10 N         139.7935  143.1035  163.1547 N.am    1  UNL1       -0.2720
     11 C         139.1069  143.1005  164.4884 C.2     1  UNL1        0.2501
     12 O         138.1009  144.1636  164.8165 O.2     1  UNL1       -0.2699
     13 C         142.7012  142.5478  158.3721 C.ar    1  UNL1        0.1488
     14 C         142.2817  141.3136  157.6300 C.ar    1  UNL1        0.0398
     15 C         143.3039  140.4932  156.9005 C.ar    1  UNL1        0.0343
     16 C         144.7456  140.9070  156.9133 C.ar    1  UNL1        0.1593
     17 F         145.7678  140.0866  156.1839 F       1  UNL1       -0.2025
     18 C         145.1651  142.1412  157.6555 C.ar    1  UNL1        0.1300
     19 N         144.1429  142.9616  158.3849 N.ar    1  UNL1       -0.2240
     20 C         139.4263  142.0343  165.4940 C.ar    1  UNL1        0.0641
     21 C         140.3848  142.3205  166.6117 C.ar    1  UNL1        0.0054
     22 C         140.7042  141.2542  167.6173 C.ar    1  UNL1        0.0001
     23 C         140.0652  139.9019  167.5051 C.ar    1  UNL1        0.0047
     24 C         139.1067  139.6156  166.3873 C.ar    1  UNL1        0.0821
     25 C         138.7873  140.6818  165.3817 C.ar    1  UNL1        0.0659
     26 CL        137.8288  140.3956  164.2639 Cl      1  UNL1       -0.0822
     27 C         138.4677  138.2632  166.2751 C.3     1  UNL1        0.4194
     28 F         137.8287  136.9107  166.1629 F       1  UNL1       -0.1658
     29 F         139.5778  137.8136  165.3719 F       1  UNL1       -0.1658
     30 F         137.3576  138.7128  167.1782 F       1  UNL1       -0.1658
@<TRIPOS>BOND
     1     2     1    1
     2     2     3    1
     3     3     4   ar
     4     4     5   ar
     5     5     6   ar
     6     6    13    1
     7    13    14   ar
     8    14    15   ar
     9    15    16   ar
    10    16    17    1
    11    16    18   ar
    12    18    19   ar
    13     6     7   ar
    14     7     8    1
    15     8     9    1
    16     9    10    1
    17    10    11   am
    18    11    12    2
    19    11    20    1
    20    20    21   ar
    21    21    22   ar
    22    22    23   ar
    23    23    24   ar
    24    24    27    1
    25    27    28    1
    26    27    29    1
    27    27    30    1
    28    24    25   ar
    29    25    26    1
    30    10     2    1
    31    25    20   ar
    32     7     3   ar
    33    19    13   ar
@<TRIPOS>MOLECULE
*****
 30 33 0 0 0
SMALL
GASTEIGER

@<TRIPOS>ATOM
      1 C         138.0545  137.9503  162.1281 C.3     1  UNL1        0.0281
      2 C         138.9941  139.1157  162.0319 C.3     1  UNL1        0.1170
      3 C         138.9918  139.9819  160.8073 C.ar    1  UNL1        0.0907
      4 N         138.1829  139.9332  159.5450 N.ar    1  UNL1       -0.2267
      5 C         138.6226  141.0685  158.6687 C.ar    1  UNL1        0.1834
      6 N         139.7032  141.8188  159.3894 N.ar    1  UNL1       -0.2768
      7 C         139.9314  141.1472  160.7111 C.ar    1  UNL1        0.0610
      8 C         140.8733  141.4463  161.8395 C.3     1  UNL1        0.0670
      9 C         140.8756  140.5800  163.0641 C.3     1  UNL1        0.1003
     10 N         139.9361  139.4148  163.1603 N.am    1  UNL1       -0.2720
     11 C         139.9385  138.5485  164.3849 C.2     1  UNL1        0.2501
     12 O         138.9989  137.3832  164.4811 O.2     1  UNL1       -0.2699
     13 C         140.4283  143.0282  158.8781 C.ar    1  UNL1        0.1488
     14 C         141.8164  142.8927  158.3261 C.ar    1  UNL1        0.0398
     15 C         142.5416  144.1022  157.8147 C.ar    1  UNL1        0.0343
     16 C         141.8786  145.4470  157.8554 C.ar    1  UNL1        0.1593
     17 F         142.6037  146.6565  157.3441 F       1  UNL1       -0.2025
     18 C         140.4904  145.5825  158.4075 C.ar    1  UNL1        0.1300
     19 N         139.7653  144.3731  158.9188 N.ar    1  UNL1       -0.2240
     20 C         140.8804  138.8476  165.5134 C.ar    1  UNL1        0.0641
     21 C         142.2930  138.3457  165.4641 C.ar    1  UNL1        0.0054
     22 C         143.2350  138.6448  166.5926 C.ar    1  UNL1        0.0001
     23 C         142.7642  139.4457  167.7702 C.ar    1  UNL1        0.0047
     24 C         141.3515  139.9476  167.8194 C.ar    1  UNL1        0.0821
     25 C         140.4096  139.6486  166.6910 C.ar    1  UNL1        0.0659
     26 CL        138.9969  140.1505  166.7402 Cl      1  UNL1       -0.0822
     27 C         140.8808  140.7486  168.9970 C.3     1  UNL1        0.4194
     28 F         140.4100  141.5496  170.1747 F       1  UNL1       -0.1658
     29 F         141.1005  142.0149  168.2236 F       1  UNL1       -0.1658
     30 F         140.6610  139.4823  169.7705 F       1  UNL1       -0.1658
@<TRIPOS>BOND
     1     2     1    1
     2     2     3    1
     3     3     4   ar
     4     4     5   ar
     5     5     6   ar
     6     6    13    1
     7    13    14   ar
     8    14    15   ar
     9    15    16   ar
    10    16    17    1
    11    16    18   ar
    12    18    19   ar
    13     6     7   ar
    14     7     8    1
    15     8     9    1
    16     9    10    1
    17    10    11   am
    18    11    12    2
    19    11    20    1
    20    20    21   ar
    21    21    22   ar
    22    22    23   ar
    23    23    24   ar
    24    24    27    1
    25    27    28    1
    26    27    29    1
    27    27    30    1
    28    24    25   ar
    29    25    26    1
    30    10     2    1
    31    25    20   ar
    32     7     3   ar
    33    19    13   ar
@<TRIPOS>MOLECULE
*****
 30 33 0 0 0
SMALL
GASTEIGER

@<TRIPOS>ATOM
      1 C         143.7447  137.8797  160.9439 C.3     1  UNL1        0.0281
      2 C         142.3644  138.1162  160.4062 C.3     1  UNL1        0.1170
      3 C         142.1037  138.0036  158.9334 C.ar    1  UNL1        0.0907
      4 N         143.0017  137.6770  157.7772 N.ar    1  UNL1       -0.2267
      5 C         142.1765  137.7117  156.5251 C.ar    1  UNL1        0.1834
      6 N         140.7684  138.0597  156.9074 N.ar    1  UNL1       -0.2768
      7 C         140.7234  138.2401  158.3959 C.ar    1  UNL1        0.0610
      8 C         139.6039  138.5892  159.3312 C.3     1  UNL1        0.0670
      9 C         139.8647  138.7018  160.8041 C.3     1  UNL1        0.1003
     10 N         141.2449  138.4653  161.3416 N.am    1  UNL1       -0.2720
     11 C         141.5056  138.5779  162.8145 C.2     1  UNL1        0.2501
     12 O         142.8859  138.3414  163.3520 O.2     1  UNL1       -0.2699
     13 C         139.6089  138.2023  155.9665 C.ar    1  UNL1        0.1488
     14 C         139.3482  137.1475  154.9324 C.ar    1  UNL1        0.0398
     15 C         138.1887  137.2900  153.9915 C.ar    1  UNL1        0.0343
     16 C         137.2900  138.4873  154.0847 C.ar    1  UNL1        0.1593
     17 F         136.1306  138.6298  153.1438 F       1  UNL1       -0.2025
     18 C         137.5508  139.5421  155.1189 C.ar    1  UNL1        0.1300
     19 N         138.7102  139.3996  156.0597 N.ar    1  UNL1       -0.2240
     20 C         140.3861  138.9270  163.7498 C.ar    1  UNL1        0.0641
     21 C         139.7538  137.8603  164.5938 C.ar    1  UNL1        0.0054
     22 C         138.6343  138.2095  165.5292 C.ar    1  UNL1        0.0001
     23 C         138.1472  139.6252  165.6205 C.ar    1  UNL1        0.0047
     24 C         138.7795  140.6919  164.7764 C.ar    1  UNL1        0.0821
     25 C         139.8990  140.3428  163.8411 C.ar    1  UNL1        0.0659
     26 CL        140.5314  141.4094  162.9971 Cl      1  UNL1       -0.0822
     27 C         138.2924  142.1076  164.8678 C.3     1  UNL1        0.4194
     28 F         137.8052  143.5234  164.9591 F       1  UNL1       -0.1658
     29 F         139.3255  142.3955  165.9165 F       1  UNL1       -0.1658
     30 F         137.2593  141.8198  163.8191 F       1  UNL1       -0.1658
@<TRIPOS>BOND
     1     2     1    1
     2     2     3    1
     3     3     4   ar
     4     4     5   ar
     5     5     6   ar
     6     6    13    1
     7    13    14   ar
     8    14    15   ar
     9    15    16   ar
    10    16    17    1
    11    16    18   ar
    12    18    19   ar
    13     6     7   ar
    14     7     8    1
    15     8     9    1
    16     9    10    1
    17    10    11   am
    18    11    12    2
    19    11    20    1
    20    20    21   ar
    21    21    22   ar
    22    22    23   ar
    23    23    24   ar
    24    24    27    1
    25    27    28    1
    26    27    29    1
    27    27    30    1
    28    24    25   ar
    29    25    26    1
    30    10     2    1
    31    25    20   ar
    32     7     3   ar
    33    19    13   ar
@<TRIPOS>MOLECULE
*****
 30 33 0 0 0
SMALL
GASTEIGER

@<TRIPOS>ATOM
      1 C         143.5140  145.0989  163.0788 C.3     1  UNL1        0.0281
      2 C         142.6329  143.9899  162.5849 C.3     1  UNL1        0.1170
      3 C         141.8144  144.1791  161.3423 C.ar    1  UNL1        0.0907
      4 N         141.6715  145.3385  160.4015 N.ar    1  UNL1       -0.2267
      5 C         140.7021  144.9461  159.3262 C.ar    1  UNL1        0.1834
      6 N         140.2459  143.5441  159.6024 N.ar    1  UNL1       -0.2768
      7 C         140.9333  143.0700  160.8485 C.ar    1  UNL1        0.0610
      8 C         140.8709  141.7718  161.5973 C.3     1  UNL1        0.0670
      9 C         141.6895  141.5826  162.8399 C.3     1  UNL1        0.1003
     10 N         142.5704  142.6916  163.3337 N.am    1  UNL1       -0.2720
     11 C         143.3891  142.5024  164.5764 C.2     1  UNL1        0.2501
     12 O         144.2701  143.6114  165.0703 O.2     1  UNL1       -0.2699
     13 C         139.2731  142.7548  158.7774 C.ar    1  UNL1        0.1488
     14 C         138.8332  143.2704  157.4393 C.ar    1  UNL1        0.0398
     15 C         137.8603  142.4810  156.6143 C.ar    1  UNL1        0.0343
     16 C         137.3275  141.1762  157.1274 C.ar    1  UNL1        0.1593
     17 F         136.3547  140.3869  156.3024 F       1  UNL1       -0.2025
     18 C         137.7675  140.6606  158.4656 C.ar    1  UNL1        0.1300
     19 N         138.7403  141.4498  159.2906 N.ar    1  UNL1       -0.2240
     20 C         143.3266  141.2042  165.3253 C.ar    1  UNL1        0.0641
     21 C         144.0493  139.9995  164.7994 C.ar    1  UNL1        0.0054
     22 C         143.9868  138.7013  165.5483 C.ar    1  UNL1        0.0001
     23 C         143.2017  138.6077  166.8229 C.ar    1  UNL1        0.0047
     24 C         142.4789  139.8124  167.3488 C.ar    1  UNL1        0.0821
     25 C         142.5414  141.1107  166.5999 C.ar    1  UNL1        0.0659
     26 CL        141.8187  142.3153  167.1258 Cl      1  UNL1       -0.0822
     27 C         141.6938  139.7189  168.6234 C.3     1  UNL1        0.4194
     28 F         140.9086  139.6253  169.8981 F       1  UNL1       -0.1658
     29 F         140.4298  139.5540  167.8327 F       1  UNL1       -0.1658
     30 F         142.9578  139.8837  169.4141 F       1  UNL1       -0.1658
@<TRIPOS>BOND
     1     2     1    1
     2     2     3    1
     3     3     4   ar
     4     4     5   ar
     5     5     6   ar
     6     6    13    1
     7    13    14   ar
     8    14    15   ar
     9    15    16   ar
    10    16    17    1
    11    16    18   ar
    12    18    19   ar
    13     6     7   ar
    14     7     8    1
    15     8     9    1
    16     9    10    1
    17    10    11   am
    18    11    12    2
    19    11    20    1
    20    20    21   ar
    21    21    22   ar
    22    22    23   ar
    23    23    24   ar
    24    24    27    1
    25    27    28    1
    26    27    29    1
    27    27    30    1
    28    24    25   ar
    29    25    26    1
    30    10     2    1
    31    25    20   ar
    32     7     3   ar
    33    19    13   ar
@<TRIPOS>MOLECULE
*****
 30 33 0 0 0
SMALL
GASTEIGER

@<TRIPOS>ATOM
      1 C         140.0873  145.6869  162.2619 C.3     1  UNL1        0.0281
      2 C         140.6315  144.3710  161.7903 C.3     1  UNL1        0.1170
      3 C         141.3458  144.2830  160.4742 C.ar    1  UNL1        0.0907
      4 N         141.6633  145.3156  159.4336 N.ar    1  UNL1       -0.2267
      5 C         142.4036  144.6378  158.3189 C.ar    1  UNL1        0.1834
      6 N         142.5437  143.1864  158.6707 N.ar    1  UNL1       -0.2768
      7 C         141.8899  142.9671  160.0028 C.ar    1  UNL1        0.0610
      8 C         141.7198  141.7392  160.8473 C.3     1  UNL1        0.0670
      9 C         141.0055  141.8272  162.1634 C.3     1  UNL1        0.1003
     10 N         140.4614  143.1430  162.6349 N.am    1  UNL1       -0.2720
     11 C         139.7470  143.2310  163.9510 C.2     1  UNL1        0.2501
     12 O         139.2029  144.5469  164.4225 O.2     1  UNL1       -0.2699
     13 C         143.2191  142.1383  157.8367 C.ar    1  UNL1        0.1488
     14 C         144.7073  142.1706  157.6524 C.ar    1  UNL1        0.0398
     15 C         145.3827  141.1225  156.8184 C.ar    1  UNL1        0.0343
     16 C         144.5699  140.0422  156.1689 C.ar    1  UNL1        0.1593
     17 F         145.2452  138.9941  155.3349 F       1  UNL1       -0.2025
     18 C         143.0815  140.0099  156.3533 C.ar    1  UNL1        0.1300
     19 N         142.4061  141.0579  157.1872 N.ar    1  UNL1       -0.2240
     20 C         139.5769  142.0031  164.7955 C.ar    1  UNL1        0.0641
     21 C         138.3633  141.1381  164.6254 C.ar    1  UNL1        0.0054
     22 C         138.1932  139.9101  165.4700 C.ar    1  UNL1        0.0001
     23 C         139.2366  139.5473  166.4847 C.ar    1  UNL1        0.0047
     24 C         140.4502  140.4124  166.6548 C.ar    1  UNL1        0.0821
     25 C         140.6204  141.6403  165.8102 C.ar    1  UNL1        0.0659
     26 CL        141.8339  142.5053  165.9804 Cl      1  UNL1       -0.0822
     27 C         141.4936  140.0495  167.6695 C.3     1  UNL1        0.4194
     28 F         142.5371  139.6866  168.6842 F       1  UNL1       -0.1658
     29 F         142.1303  139.1175  166.6815 F       1  UNL1       -0.1658
     30 F         140.8570  140.9815  168.6575 F       1  UNL1       -0.1658
@<TRIPOS>BOND
     1     2     1    1
     2     2     3    1
     3     3     4   ar
     4     4     5   ar
     5     5     6   ar
     6     6    13    1
     7    13    14   ar
     8    14    15   ar
     9    15    16   ar
    10    16    17    1
    11    16    18   ar
    12    18    19   ar
    13     6     7   ar
    14     7     8    1
    15     8     9    1
    16     9    10    1
    17    10    11   am
    18    11    12    2
    19    11    20    1
    20    20    21   ar
    21    21    22   ar
    22    22    23   ar
    23    23    24   ar
    24    24    27    1
    25    27    28    1
    26    27    29    1
    27    27    30    1
    28    24    25   ar
    29    25    26    1
    30    10     2    1
    31    25    20   ar
    32     7     3   ar
    33    19    13   ar
@<TRIPOS>MOLECULE
*****
 30 33 0 0 0
SMALL
GASTEIGER

@<TRIPOS>ATOM
      1 C         139.2104  144.7132  164.8224 C.3     1  UNL1        0.0281
      2 C         139.7230  144.0719  163.5670 C.3     1  UNL1        0.1170
      3 C         139.7419  144.8466  162.2827 C.ar    1  UNL1        0.0907
      4 N         139.3229  146.2479  161.9496 N.ar    1  UNL1       -0.2267
      5 C         139.5765  146.4725  160.4884 C.ar    1  UNL1        0.1834
      6 N         140.1522  145.2101  159.9184 N.ar    1  UNL1       -0.2768
      7 C         140.2545  144.2052  161.0273 C.ar    1  UNL1        0.0610
      8 C         140.7481  142.7891  161.0562 C.3     1  UNL1        0.0670
      9 C         140.7292  142.0143  162.3405 C.3     1  UNL1        0.1003
     10 N         140.2166  142.6557  163.5958 N.am    1  UNL1       -0.2720
     11 C         140.1977  141.8808  164.8801 C.2     1  UNL1        0.2501
     12 O         139.6851  142.5222  166.1355 O.2     1  UNL1       -0.2699
     13 C         140.5550  144.9910  158.4901 C.ar    1  UNL1        0.1488
     14 C         141.7726  145.6737  157.9411 C.ar    1  UNL1        0.0398
     15 C         142.1754  145.4547  156.5129 C.ar    1  UNL1        0.0343
     16 C         141.3606  144.5530  155.6337 C.ar    1  UNL1        0.1593
     17 F         141.7634  144.3340  154.2055 F       1  UNL1       -0.2025
     18 C         140.1430  143.8703  156.1828 C.ar    1  UNL1        0.1300
     19 N         139.7402  144.0893  157.6109 N.ar    1  UNL1       -0.2240
     20 C         140.6913  140.4647  164.9091 C.ar    1  UNL1        0.0641
     21 C         139.7658  139.3404  164.5493 C.ar    1  UNL1        0.0054
     22 C         140.2595  137.9242  164.5782 C.ar    1  UNL1        0.0001
     23 C         141.6785  137.6324  164.9669 C.ar    1  UNL1        0.0047
     24 C         142.6040  138.7568  165.3267 C.ar    1  UNL1        0.0821
     25 C         142.1104  140.1729  165.2977 C.ar    1  UNL1        0.0659
     26 CL        143.0359  141.2972  165.6575 Cl      1  UNL1       -0.0822
     27 C         144.0231  138.4649  165.7153 C.3     1  UNL1        0.4194
     28 F         145.4422  138.1730  166.1040 F       1  UNL1       -0.1658
     29 F         144.4745  138.8112  164.3274 F       1  UNL1       -0.1658
     30 F         143.5718  138.1186  167.1033 F       1  UNL1       -0.1658
@<TRIPOS>BOND
     1     2     1    1
     2     2     3    1
     3     3     4   ar
     4     4     5   ar
     5     5     6   ar
     6     6    13    1
     7    13    14   ar
     8    14    15   ar
     9    15    16   ar
    10    16    17    1
    11    16    18   ar
    12    18    19   ar
    13     6     7   ar
    14     7     8    1
    15     8     9    1
    16     9    10    1
    17    10    11   am
    18    11    12    2
    19    11    20    1
    20    20    21   ar
    21    21    22   ar
    22    22    23   ar
    23    23    24   ar
    24    24    27    1
    25    27    28    1
    26    27    29    1
    27    27    30    1
    28    24    25   ar
    29    25    26    1
    30    10     2    1
    31    25    20   ar
    32     7     3   ar
    33    19    13   ar
@<TRIPOS>MOLECULE
*****
 30 33 0 0 0
SMALL
GASTEIGER

@<TRIPOS>ATOM
      1 C         143.8912  141.9900  159.6047 C.3     1  UNL1        0.0281
      2 C         143.4958  140.5439  159.6541 C.3     1  UNL1        0.1170
      3 C         143.3690  139.7571  158.3833 C.ar    1  UNL1        0.0907
      4 N         143.5692  140.1340  156.9453 N.ar    1  UNL1       -0.2267
      5 C         143.2974  138.9209  156.1060 C.ar    1  UNL1        0.1834
      6 N         142.9293  137.7942  157.0253 N.ar    1  UNL1       -0.2768
      7 C         142.9736  138.3110  158.4328 C.ar    1  UNL1        0.0610
      8 C         142.7049  137.6517  159.7530 C.3     1  UNL1        0.0670
      9 C         142.8317  138.4384  161.0238 C.3     1  UNL1        0.1003
     10 N         143.2271  139.8845  160.9744 N.am    1  UNL1       -0.2720
     11 C         143.3538  140.6713  162.2452 C.2     1  UNL1        0.2501
     12 O         143.7492  142.1174  162.1958 O.2     1  UNL1       -0.2699
     13 C         142.5786  136.3961  156.6100 C.ar    1  UNL1        0.1488
     14 C         141.5128  136.1648  155.5803 C.ar    1  UNL1        0.0398
     15 C         141.1620  134.7667  155.1649 C.ar    1  UNL1        0.0343
     16 C         141.8770  133.6001  155.7793 C.ar    1  UNL1        0.1593
     17 F         141.5263  132.2021  155.3641 F       1  UNL1       -0.2025
     18 C         142.9429  133.8315  156.8092 C.ar    1  UNL1        0.1300
     19 N         143.2937  135.2295  157.2245 N.ar    1  UNL1       -0.2240
     20 C         143.0851  140.0119  163.5655 C.ar    1  UNL1        0.0641
     21 C         144.2104  139.3831  164.3325 C.ar    1  UNL1        0.0054
     22 C         143.9416  138.7237  165.6528 C.ar    1  UNL1        0.0001
     23 C         142.5477  138.6933  166.2060 C.ar    1  UNL1        0.0047
     24 C         141.4224  139.3221  165.4389 C.ar    1  UNL1        0.0821
     25 C         141.6911  139.9815  164.1186 C.ar    1  UNL1        0.0659
     26 CL        140.5659  140.6103  163.3516 Cl      1  UNL1       -0.0822
     27 C         140.0285  139.2916  165.9921 C.3     1  UNL1        0.4194
     28 F         138.6346  139.2611  166.5453 F       1  UNL1       -0.1658
     29 F         139.8008  137.9578  165.3448 F       1  UNL1       -0.1658
     30 F         140.2562  140.6255  166.6394 F       1  UNL1       -0.1658
@<TRIPOS>BOND
     1     2     1    1
     2     2     3    1
     3     3     4   ar
     4     4     5   ar
     5     5     6   ar
     6     6    13    1
     7    13    14   ar
     8    14    15   ar
     9    15    16   ar
    10    16    17    1
    11    16    18   ar
    12    18    19   ar
    13     6     7   ar
    14     7     8    1
    15     8     9    1
    16     9    10    1
    17    10    11   am
    18    11    12    2
    19    11    20    1
    20    20    21   ar
    21    21    22   ar
    22    22    23   ar
    23    23    24   ar
    24    24    27    1
    25    27    28    1
    26    27    29    1
    27    27    30    1
    28    24    25   ar
    29    25    26    1
    30    10     2    1
    31    25    20   ar
    32     7     3   ar
    33    19    13   ar
@<TRIPOS>MOLECULE
*****
 30 33 0 0 0
SMALL
GASTEIGER

@<TRIPOS>ATOM
      1 C         144.0426  137.7554  161.1049 C.3     1  UNL1        0.0281
      2 C         142.7199  138.2652  160.6142 C.3     1  UNL1        0.1170
      3 C         142.2903  137.9983  159.2020 C.ar    1  UNL1        0.0907
      4 N         142.9536  137.2678  158.0722 N.ar    1  UNL1       -0.2267
      5 C         142.0409  137.3261  156.8833 C.ar    1  UNL1        0.1834
      6 N         140.8135  138.0927  157.2783 N.ar    1  UNL1       -0.2768
      7 C         140.9677  138.5081  158.7114 C.ar    1  UNL1        0.0610
      8 C         140.0746  139.2847  159.6329 C.3     1  UNL1        0.0670
      9 C         140.5041  139.5516  161.0450 C.3     1  UNL1        0.1003
     10 N         141.8267  139.0419  161.5357 N.am    1  UNL1       -0.2720
     11 C         142.2563  139.3087  162.9480 C.2     1  UNL1        0.2501
     12 O         143.5789  138.7990  163.4386 O.2     1  UNL1       -0.2699
     13 C         139.6383  138.3913  156.3953 C.ar    1  UNL1        0.1488
     14 C         139.0825  137.3238  155.5000 C.ar    1  UNL1        0.0398
     15 C         137.9073  137.6224  154.6169 C.ar    1  UNL1        0.0343
     16 C         137.2880  138.9884  154.6291 C.ar    1  UNL1        0.1593
     17 F         136.1128  139.2870  153.7461 F       1  UNL1       -0.2025
     18 C         137.8438  140.0559  155.5244 C.ar    1  UNL1        0.1300
     19 N         139.0190  139.7574  156.4075 N.ar    1  UNL1       -0.2240
     20 C         141.3632  140.0854  163.8695 C.ar    1  UNL1        0.0641
     21 C         141.4008  141.5849  163.8630 C.ar    1  UNL1        0.0054
     22 C         140.5077  142.3615  164.7846 C.ar    1  UNL1        0.0001
     23 C         139.5770  141.6386  165.7125 C.ar    1  UNL1        0.0047
     24 C         139.5393  140.1390  165.7190 C.ar    1  UNL1        0.0821
     25 C         140.4324  139.3624  164.7975 C.ar    1  UNL1        0.0659
     26 CL        140.3948  137.8629  164.8039 Cl      1  UNL1       -0.0822
     27 C         138.6086  139.4161  166.6470 C.3     1  UNL1        0.4194
     28 F         137.6778  138.6933  167.5750 F       1  UNL1       -0.1658
     29 F         137.5903  139.3188  165.5499 F       1  UNL1       -0.1658
     30 F         139.6268  139.5135  167.7441 F       1  UNL1       -0.1658
@<TRIPOS>BOND
     1     2     1    1
     2     2     3    1
     3     3     4   ar
     4     4     5   ar
     5     5     6   ar
     6     6    13    1
     7    13    14   ar
     8    14    15   ar
     9    15    16   ar
    10    16    17    1
    11    16    18   ar
    12    18    19   ar
    13     6     7   ar
    14     7     8    1
    15     8     9    1
    16     9    10    1
    17    10    11   am
    18    11    12    2
    19    11    20    1
    20    20    21   ar
    21    21    22   ar
    22    22    23   ar
    23    23    24   ar
    24    24    27    1
    25    27    28    1
    26    27    29    1
    27    27    30    1
    28    24    25   ar
    29    25    26    1
    30    10     2    1
    31    25    20   ar
    32     7     3   ar
    33    19    13   ar
@<TRIPOS>MOLECULE
*****
 30 33 0 0 0
SMALL
GASTEIGER

@<TRIPOS>ATOM
      1 C         138.4704  138.8428  163.0372 C.3     1  UNL1        0.0281
      2 C         139.4338  139.8123  163.6552 C.3     1  UNL1        0.1170
      3 C         139.5371  139.9187  165.1478 C.ar    1  UNL1        0.0907
      4 N         138.8238  139.2036  166.2567 N.ar    1  UNL1       -0.2267
      5 C         139.3464  139.7312  167.5600 C.ar    1  UNL1        0.1834
      6 N         140.3827  140.7724  167.2565 N.ar    1  UNL1       -0.2768
      7 C         140.5006  140.8883  165.7657 C.ar    1  UNL1        0.0610
      8 C         141.3607  141.7514  164.8909 C.3     1  UNL1        0.0670
      9 C         141.2574  141.6450  163.3983 C.3     1  UNL1        0.1003
     10 N         140.2940  140.6755  162.7804 N.am    1  UNL1       -0.2720
     11 C         140.1907  140.5691  161.2877 C.2     1  UNL1        0.2501
     12 O         139.2272  139.5996  160.6698 O.2     1  UNL1       -0.2699
     13 C         141.1639  141.5594  168.2666 C.ar    1  UNL1        0.1488
     14 C         140.5324  142.7337  168.9538 C.ar    1  UNL1        0.0398
     15 C         141.3136  143.5208  169.9639 C.ar    1  UNL1        0.0343
     16 C         142.7263  143.1336  170.2867 C.ar    1  UNL1        0.1593
     17 F         143.5075  143.9207  171.2968 F       1  UNL1       -0.2025
     18 C         143.3578  141.9593  169.5995 C.ar    1  UNL1        0.1300
     19 N         142.5767  141.1722  168.5894 N.ar    1  UNL1       -0.2240
     20 C         141.0508  141.4322  160.4129 C.ar    1  UNL1        0.0641
     21 C         142.4258  140.9738  160.0266 C.ar    1  UNL1        0.0054
     22 C         143.2859  141.8370  159.1518 C.ar    1  UNL1        0.0001
     23 C         142.7710  143.1585  158.6634 C.ar    1  UNL1        0.0047
     24 C         141.3960  143.6169  159.0499 C.ar    1  UNL1        0.0821
     25 C         140.5359  142.7538  159.9246 C.ar    1  UNL1        0.0659
     26 CL        139.1609  143.2122  160.3110 Cl      1  UNL1       -0.0822
     27 C         140.8811  144.9384  158.5615 C.3     1  UNL1        0.4194
     28 F         140.3663  146.2600  158.0731 F       1  UNL1       -0.1658
     29 F         141.3759  145.5949  159.8162 F       1  UNL1       -0.1658
     30 F         140.3864  144.2820  157.3068 F       1  UNL1       -0.1658
@<TRIPOS>BOND
     1     2     1    1
     2     2     3    1
     3     3     4   ar
     4     4     5   ar
     5     5     6   ar
     6     6    13    1
     7    13    14   ar
     8    14    15   ar
     9    15    16   ar
    10    16    17    1
    11    16    18   ar
    12    18    19   ar
    13     6     7   ar
    14     7     8    1
    15     8     9    1
    16     9    10    1
    17    10    11   am
    18    11    12    2
    19    11    20    1
    20    20    21   ar
    21    21    22   ar
    22    22    23   ar
    23    23    24   ar
    24    24    27    1
    25    27    28    1
    26    27    29    1
    27    27    30    1
    28    24    25   ar
    29    25    26    1
    30    10     2    1
    31    25    20   ar
    32     7     3   ar
    33    19    13   ar
