@<TRIPOS>MOLECULE
*****
 21 22 0 0 0
SMALL
GASTEIGER

@<TRIPOS>ATOM
      1 C         138.2422  140.2466  164.1013 C.ar    1  UNL1        0.1434
      2 C         138.1265  141.6951  164.4736 C.ar    1  UNL1        0.0486
      3 C         137.8839  142.7256  163.4109 C.ar    1  UNL1        0.0607
      4 CL        137.7682  144.1740  163.7831 Cl      1  UNL1       -0.0821
      5 C         137.7570  142.3075  161.9758 C.ar    1  UNL1        0.0113
      6 C         137.8727  140.8591  161.6036 C.ar    1  UNL1        0.0010
      7 C         138.1153  139.8286  162.6663 C.ar    1  UNL1        0.0282
      8 O         138.4848  139.2162  165.1640 O.3     1  UNL1       -0.4538
      9 C         140.2251  140.1064  168.6178 C.ar    1  UNL1       -0.0086
     10 C         139.1638  139.8803  167.5823 C.ar    1  UNL1        0.0341
     11 C         139.5462  139.4423  166.1996 C.ar    1  UNL1        0.1450
     12 C         140.9900  139.2305  165.8524 C.ar    1  UNL1        0.0383
     13 C         142.0513  139.4566  166.8879 C.ar    1  UNL1        0.0142
     14 C         141.6689  139.8946  168.2706 C.ar    1  UNL1        0.0539
     15 CL        142.7303  140.1207  169.3062 Cl      1  UNL1       -0.0826
     16 C         139.7113  142.0050  170.3152 C.3     1  UNL1        0.0051
     17 C         139.8426  140.5443  170.0006 C.3     1  UNL1        0.0273
     18 C         138.2310  138.3801  162.2940 C.3     1  UNL1        0.0987
     19 N         139.3289  137.5411  162.8776 N.3     1  UNL1       -0.2925
     20 C         140.7464  137.7446  162.4311 C.3     1  UNL1        0.0861
     21 H         139.0941  136.5687  162.6783 H       1  UNL1        0.1236
@<TRIPOS>BOND
     1    16    17    1
     2    17     9    1
     3     9    10   ar
     4    10    11   ar
     5    11     8    1
     6     8     1    1
     7     1     2   ar
     8     2     3   ar
     9     3     4    1
    10     3     5   ar
    11     5     6   ar
    12     6     7   ar
    13     7    18    1
    14    18    19    1
    15    19    20    1
    16    11    12   ar
    17    12    13   ar
    18    13    14   ar
    19    14    15    1
    20    14     9   ar
    21     7     1   ar
    22    19    21    1
@<TRIPOS>MOLECULE
*****
 21 22 0 0 0
SMALL
GASTEIGER

@<TRIPOS>ATOM
      1 C         141.8943  142.5399  164.0388 C.ar    1  UNL1        0.1434
      2 C         143.1329  141.6937  164.0374 C.ar    1  UNL1        0.0486
      3 C         144.4468  142.2880  163.6247 C.ar    1  UNL1        0.0607
      4 CL        145.6853  141.4419  163.6233 Cl      1  UNL1       -0.0821
      5 C         144.5222  143.7286  163.2133 C.ar    1  UNL1        0.0113
      6 C         143.2837  144.5748  163.2147 C.ar    1  UNL1        0.0010
      7 C         141.9697  143.9804  163.6274 C.ar    1  UNL1        0.0282
      8 O         140.5804  141.9456  164.4515 O.3     1  UNL1       -0.4538
      9 C         140.6121  142.0678  168.4182 C.ar    1  UNL1       -0.0086
     10 C         140.8460  142.4493  166.9865 C.ar    1  UNL1        0.0341
     11 C         140.3465  141.5641  165.8833 C.ar    1  UNL1        0.1450
     12 C         139.6131  140.2976  166.2118 C.ar    1  UNL1        0.0383
     13 C         139.3792  139.9162  167.6435 C.ar    1  UNL1        0.0142
     14 C         139.8787  140.8013  168.7467 C.ar    1  UNL1        0.0539
     15 CL        139.6448  140.4198  170.1784 Cl      1  UNL1       -0.0826
     16 C         140.3179  144.1567  169.9348 C.3     1  UNL1        0.0051
     17 C         141.1117  142.9530  169.5213 C.3     1  UNL1        0.0273
     18 C         140.7312  144.8267  163.6288 C.3     1  UNL1        0.0987
     19 N         140.7001  146.1120  162.8562 N.3     1  UNL1       -0.2925
     20 C         139.7384  146.2794  161.7174 C.3     1  UNL1        0.0861
     21 H         141.6359  146.2483  162.4738 H       1  UNL1        0.1236
@<TRIPOS>BOND
     1    16    17    1
     2    17     9    1
     3     9    10   ar
     4    10    11   ar
     5    11     8    1
     6     8     1    1
     7     1     2   ar
     8     2     3   ar
     9     3     4    1
    10     3     5   ar
    11     5     6   ar
    12     6     7   ar
    13     7    18    1
    14    18    19    1
    15    19    20    1
    16    11    12   ar
    17    12    13   ar
    18    13    14   ar
    19    14    15    1
    20    14     9   ar
    21     7     1   ar
    22    19    21    1
@<TRIPOS>MOLECULE
*****
 21 22 0 0 0
SMALL
GASTEIGER

@<TRIPOS>ATOM
      1 C         138.0643  140.3470  164.0752 C.ar    1  UNL1        0.1434
      2 C         137.9618  141.8207  164.3362 C.ar    1  UNL1        0.0486
      3 C         137.8502  142.7796  163.1882 C.ar    1  UNL1        0.0607
      4 CL        137.7478  144.2532  163.4491 Cl      1  UNL1       -0.0821
      5 C         137.8411  142.2650  161.7792 C.ar    1  UNL1        0.0113
      6 C         137.9435  140.7914  161.5183 C.ar    1  UNL1        0.0010
      7 C         138.0551  139.8325  162.6663 C.ar    1  UNL1        0.0282
      8 O         138.1758  139.3881  165.2232 O.3     1  UNL1       -0.4538
      9 C         141.8195  139.5166  166.7908 C.ar    1  UNL1       -0.0086
     10 C         140.7108  139.3649  165.7920 C.ar    1  UNL1        0.0341
     11 C         139.2845  139.5398  166.2222 C.ar    1  UNL1        0.1450
     12 C         138.9669  139.8665  167.6513 C.ar    1  UNL1        0.0383
     13 C         140.0756  140.0182  168.6502 C.ar    1  UNL1        0.0142
     14 C         141.5019  139.8433  168.2199 C.ar    1  UNL1        0.0539
     15 CL        142.6106  139.9950  169.2189 Cl      1  UNL1       -0.0826
     16 C         143.9063  138.0004  166.4806 C.3     1  UNL1        0.0051
     17 C         143.2458  139.3417  166.3606 C.3     1  UNL1        0.0273
     18 C         138.1575  138.3588  162.4053 C.3     1  UNL1        0.0987
     19 N         139.3822  137.6050  162.8319 N.3     1  UNL1       -0.2925
     20 C         140.7131  137.9289  162.2206 C.3     1  UNL1        0.0861
     21 H         139.2025  136.6193  162.6409 H       1  UNL1        0.1236
@<TRIPOS>BOND
     1    16    17    1
     2    17     9    1
     3     9    10   ar
     4    10    11   ar
     5    11     8    1
     6     8     1    1
     7     1     2   ar
     8     2     3   ar
     9     3     4    1
    10     3     5   ar
    11     5     6   ar
    12     6     7   ar
    13     7    18    1
    14    18    19    1
    15    19    20    1
    16    11    12   ar
    17    12    13   ar
    18    13    14   ar
    19    14    15    1
    20    14     9   ar
    21     7     1   ar
    22    19    21    1
@<TRIPOS>MOLECULE
*****
 21 22 0 0 0
SMALL
GASTEIGER

@<TRIPOS>ATOM
      1 C         140.5021  139.8795  166.8090 C.ar    1  UNL1        0.1434
      2 C         140.2981  139.1275  165.5271 C.ar    1  UNL1        0.0486
      3 C         139.0303  138.3580  165.3027 C.ar    1  UNL1        0.0607
      4 CL        138.8262  137.6061  164.0209 Cl      1  UNL1       -0.0821
      5 C         137.9664  138.3405  166.3600 C.ar    1  UNL1        0.0113
      6 C         138.1704  139.0924  167.6418 C.ar    1  UNL1        0.0010
      7 C         139.4383  139.8619  167.8663 C.ar    1  UNL1        0.0282
      8 O         141.7700  140.6490  167.0334 O.3     1  UNL1       -0.4538
      9 C         141.3937  143.8290  164.6891 C.ar    1  UNL1       -0.0086
     10 C         141.0416  142.6840  165.5918 C.ar    1  UNL1        0.0341
     11 C         142.1222  141.7940  166.1307 C.ar    1  UNL1        0.1450
     12 C         143.5548  142.0491  165.7669 C.ar    1  UNL1        0.0383
     13 C         143.9069  143.1942  164.8642 C.ar    1  UNL1        0.0142
     14 C         142.8263  144.0841  164.3253 C.ar    1  UNL1        0.0539
     15 CL        143.1785  145.2292  163.4226 Cl      1  UNL1       -0.0826
     16 C         139.0006  144.8244  164.8685 C.3     1  UNL1        0.0051
     17 C         140.3131  144.7189  164.1502 C.3     1  UNL1        0.0273
     18 C         139.6423  140.6138  169.1481 C.3     1  UNL1        0.0987
     19 N         140.0906  142.0448  169.1150 N.3     1  UNL1       -0.2925
     20 C         139.9785  142.8946  170.3459 C.3     1  UNL1        0.0861
     21 H         139.5457  142.5074  168.3873 H       1  UNL1        0.1236
@<TRIPOS>BOND
     1    16    17    1
     2    17     9    1
     3     9    10   ar
     4    10    11   ar
     5    11     8    1
     6     8     1    1
     7     1     2   ar
     8     2     3   ar
     9     3     4    1
    10     3     5   ar
    11     5     6   ar
    12     6     7   ar
    13     7    18    1
    14    18    19    1
    15    19    20    1
    16    11    12   ar
    17    12    13   ar
    18    13    14   ar
    19    14    15    1
    20    14     9   ar
    21     7     1   ar
    22    19    21    1
@<TRIPOS>MOLECULE
*****
 21 22 0 0 0
SMALL
GASTEIGER

@<TRIPOS>ATOM
      1 C         140.0784  142.1680  164.3057 C.ar    1  UNL1        0.1434
      2 C         141.2363  143.1148  164.1911 C.ar    1  UNL1        0.0486
      3 C         140.9940  144.5613  163.8766 C.ar    1  UNL1        0.0607
      4 CL        142.1517  145.5081  163.7620 Cl      1  UNL1       -0.0821
      5 C         139.5938  145.0610  163.6768 C.ar    1  UNL1        0.0113
      6 C         138.4360  144.1143  163.7915 C.ar    1  UNL1        0.0010
      7 C         138.6784  142.6678  164.1059 C.ar    1  UNL1        0.0282
      8 O         140.3208  140.7215  164.6201 O.3     1  UNL1       -0.4538
      9 C         140.5339  140.1854  168.5466 C.ar    1  UNL1       -0.0086
     10 C         140.0151  140.5827  167.1964 C.ar    1  UNL1        0.0341
     11 C         140.8396  140.3242  165.9703 C.ar    1  UNL1        0.1450
     12 C         142.1829  139.6684  166.0944 C.ar    1  UNL1        0.0383
     13 C         142.7017  139.2711  167.4446 C.ar    1  UNL1        0.0142
     14 C         141.8772  139.5296  168.6707 C.ar    1  UNL1        0.0539
     15 CL        142.3960  139.1323  170.0209 Cl      1  UNL1       -0.0826
     16 C         139.6221  141.8300  170.3393 C.3     1  UNL1        0.0051
     17 C         139.7093  140.4439  169.7727 C.3     1  UNL1        0.0273
     18 C         137.5205  141.7210  164.2205 C.3     1  UNL1        0.0987
     19 N         136.8421  141.2125  162.9831 N.3     1  UNL1       -0.2925
     20 C         137.6615  140.7347  161.8212 C.3     1  UNL1        0.0861
     21 H         136.2543  141.9708  162.6369 H       1  UNL1        0.1236
@<TRIPOS>BOND
     1    16    17    1
     2    17     9    1
     3     9    10   ar
     4    10    11   ar
     5    11     8    1
     6     8     1    1
     7     1     2   ar
     8     2     3   ar
     9     3     4    1
    10     3     5   ar
    11     5     6   ar
    12     6     7   ar
    13     7    18    1
    14    18    19    1
    15    19    20    1
    16    11    12   ar
    17    12    13   ar
    18    13    14   ar
    19    14    15    1
    20    14     9   ar
    21     7     1   ar
    22    19    21    1
@<TRIPOS>MOLECULE
*****
 21 22 0 0 0
SMALL
GASTEIGER

@<TRIPOS>ATOM
      1 C         140.1395  141.3679  167.0704 C.ar    1  UNL1        0.1434
      2 C         140.5813  142.5917  167.8169 C.ar    1  UNL1        0.0486
      3 C         140.3274  142.7035  169.2910 C.ar    1  UNL1        0.0607
      4 CL        140.7693  143.9272  170.0375 Cl      1  UNL1       -0.0821
      5 C         139.6317  141.5915  170.0187 C.ar    1  UNL1        0.0113
      6 C         139.1899  140.3677  169.2722 C.ar    1  UNL1        0.0010
      7 C         139.4438  140.2560  167.7981 C.ar    1  UNL1        0.0282
      8 O         140.3933  141.2561  165.5963 O.3     1  UNL1       -0.4538
      9 C         143.6645  142.6884  163.8649 C.ar    1  UNL1       -0.0086
     10 C         142.2636  142.5998  164.3935 C.ar    1  UNL1        0.0341
     11 C         141.7943  141.3447  165.0677 C.ar    1  UNL1        0.1450
     12 C         142.7260  140.1782  165.2133 C.ar    1  UNL1        0.0383
     13 C         144.1270  140.2669  164.6847 C.ar    1  UNL1        0.0142
     14 C         144.5962  141.5219  164.0105 C.ar    1  UNL1        0.0539
     15 CL        145.9973  141.6105  163.4819 Cl      1  UNL1       -0.0826
     16 C         143.6013  145.2751  163.6302 C.3     1  UNL1        0.0051
     17 C         144.1338  143.9435  163.1907 C.3     1  UNL1        0.0273
     18 C         139.0019  139.0321  167.0516 C.3     1  UNL1        0.0987
     19 N         138.3643  139.1671  165.7006 N.3     1  UNL1       -0.2925
     20 C         138.7933  138.2719  164.5761 C.3     1  UNL1        0.0861
     21 H         138.5274  140.1257  165.3925 H       1  UNL1        0.1236
@<TRIPOS>BOND
     1    16    17    1
     2    17     9    1
     3     9    10   ar
     4    10    11   ar
     5    11     8    1
     6     8     1    1
     7     1     2   ar
     8     2     3   ar
     9     3     4    1
    10     3     5   ar
    11     5     6   ar
    12     6     7   ar
    13     7    18    1
    14    18    19    1
    15    19    20    1
    16    11    12   ar
    17    12    13   ar
    18    13    14   ar
    19    14    15    1
    20    14     9   ar
    21     7     1   ar
    22    19    21    1
@<TRIPOS>MOLECULE
*****
 21 22 0 0 0
SMALL
GASTEIGER

@<TRIPOS>ATOM
      1 C         139.1375  140.2828  164.8980 C.ar    1  UNL1        0.1434
      2 C         138.3876  139.7966  163.6933 C.ar    1  UNL1        0.0486
      3 C         138.6474  138.4217  163.1527 C.ar    1  UNL1        0.0607
      4 CL        137.8976  137.9354  161.9480 Cl      1  UNL1       -0.0821
      5 C         139.6570  137.5330  163.8169 C.ar    1  UNL1        0.0113
      6 C         140.4068  138.0193  165.0216 C.ar    1  UNL1        0.0010
      7 C         140.1470  139.3942  165.5621 C.ar    1  UNL1        0.0282
      8 O         138.8778  141.6577  165.4386 O.3     1  UNL1       -0.4538
      9 C         140.6787  144.7309  163.6887 C.ar    1  UNL1       -0.0086
     10 C         140.4496  143.5286  164.5557 C.ar    1  UNL1        0.0341
     11 C         139.1068  142.8601  164.5715 C.ar    1  UNL1        0.1450
     12 C         137.9932  143.3941  163.7203 C.ar    1  UNL1        0.0383
     13 C         138.2223  144.5964  162.8532 C.ar    1  UNL1        0.0142
     14 C         139.5650  145.2649  162.8374 C.ar    1  UNL1        0.0539
     15 CL        139.7941  146.4673  161.9703 Cl      1  UNL1       -0.0826
     16 C         143.2530  144.6166  164.0198 C.3     1  UNL1        0.0051
     17 C         142.0214  145.3993  163.6729 C.3     1  UNL1        0.0273
     18 C         140.8969  139.8804  166.7669 C.3     1  UNL1        0.0987
     19 N         140.2175  140.7717  167.7638 N.3     1  UNL1       -0.2925
     20 C         139.4374  140.1726  168.8962 C.3     1  UNL1        0.0861
     21 H         139.5704  141.3605  167.2395 H       1  UNL1        0.1236
@<TRIPOS>BOND
     1    16    17    1
     2    17     9    1
     3     9    10   ar
     4    10    11   ar
     5    11     8    1
     6     8     1    1
     7     1     2   ar
     8     2     3   ar
     9     3     4    1
    10     3     5   ar
    11     5     6   ar
    12     6     7   ar
    13     7    18    1
    14    18    19    1
    15    19    20    1
    16    11    12   ar
    17    12    13   ar
    18    13    14   ar
    19    14    15    1
    20    14     9   ar
    21     7     1   ar
    22    19    21    1
@<TRIPOS>MOLECULE
*****
 21 22 0 0 0
SMALL
GASTEIGER

@<TRIPOS>ATOM
      1 C         141.2512  141.7416  167.2854 C.ar    1  UNL1        0.1434
      2 C         140.9600  142.6510  168.4422 C.ar    1  UNL1        0.0486
      3 C         140.0503  142.1949  169.5443 C.ar    1  UNL1        0.0607
      4 CL        139.7591  143.1042  170.7011 Cl      1  UNL1       -0.0821
      5 C         139.4319  140.8293  169.4895 C.ar    1  UNL1        0.0113
      6 C         139.7232  139.9200  168.3327 C.ar    1  UNL1        0.0010
      7 C         140.6328  140.3761  167.2307 C.ar    1  UNL1        0.0282
      8 O         142.1608  142.1977  166.1833 O.3     1  UNL1       -0.4538
      9 C         139.7050  144.2227  163.8130 C.ar    1  UNL1       -0.0086
     10 C         140.2009  143.2478  164.8395 C.ar    1  UNL1        0.0341
     11 C         141.6650  143.1726  165.1568 C.ar    1  UNL1        0.1450
     12 C         142.6333  144.0722  164.4475 C.ar    1  UNL1        0.0383
     13 C         142.1374  145.0470  163.4210 C.ar    1  UNL1        0.0142
     14 C         140.6733  145.1223  163.1037 C.ar    1  UNL1        0.0539
     15 CL        140.1775  146.0972  162.0772 Cl      1  UNL1       -0.0826
     16 C         137.5993  143.2321  162.6577 C.3     1  UNL1        0.0051
     17 C         138.2409  144.2979  163.4957 C.3     1  UNL1        0.0273
     18 C         140.9240  139.4667  166.0738 C.3     1  UNL1        0.0987
     19 N         142.3117  139.3919  165.5094 N.3     1  UNL1       -0.2925
     20 C         143.3031  138.4230  166.0822 C.3     1  UNL1        0.0861
     21 H         142.7194  140.3219  165.6060 H       1  UNL1        0.1236
@<TRIPOS>BOND
     1    16    17    1
     2    17     9    1
     3     9    10   ar
     4    10    11   ar
     5    11     8    1
     6     8     1    1
     7     1     2   ar
     8     2     3   ar
     9     3     4    1
    10     3     5   ar
    11     5     6   ar
    12     6     7   ar
    13     7    18    1
    14    18    19    1
    15    19    20    1
    16    11    12   ar
    17    12    13   ar
    18    13    14   ar
    19    14    15    1
    20    14     9   ar
    21     7     1   ar
    22    19    21    1
@<TRIPOS>MOLECULE
*****
 21 22 0 0 0
SMALL
GASTEIGER

@<TRIPOS>ATOM
      1 C         142.1571  142.7327  164.4658 C.ar    1  UNL1        0.1434
      2 C         140.7967  143.2091  164.0506 C.ar    1  UNL1        0.0486
      3 C         140.6184  144.6022  163.5238 C.ar    1  UNL1        0.0607
      4 CL        139.2580  145.0786  163.1086 Cl      1  UNL1       -0.0821
      5 C         141.8005  145.5188  163.4122 C.ar    1  UNL1        0.0113
      6 C         143.1608  145.0424  163.8273 C.ar    1  UNL1        0.0010
      7 C         143.3392  143.6493  164.3542 C.ar    1  UNL1        0.0282
      8 O         142.3355  141.3396  164.9926 O.3     1  UNL1       -0.4538
      9 C         141.9833  141.9568  168.8971 C.ar    1  UNL1       -0.0086
     10 C         141.9961  142.2067  167.4182 C.ar    1  UNL1        0.0341
     11 C         142.3227  141.0897  166.4717 C.ar    1  UNL1        0.1450
     12 C         142.6365  139.7230  167.0041 C.ar    1  UNL1        0.0383
     13 C         142.6237  139.4732  168.4831 C.ar    1  UNL1        0.0142
     14 C         142.2971  140.5901  169.4296 C.ar    1  UNL1        0.0539
     15 CL        142.2843  140.3403  170.9086 Cl      1  UNL1       -0.0826
     16 C         140.2284  143.3614  170.2000 C.3     1  UNL1        0.0051
     17 C         141.6568  143.0738  169.8436 C.3     1  UNL1        0.0273
     18 C         144.6996  143.1729  164.7694 C.3     1  UNL1        0.0987
     19 N         145.2721  141.9231  164.1692 N.3     1  UNL1       -0.2925
     20 C         145.4176  141.8044  162.6810 C.3     1  UNL1        0.0861
     21 H         144.6752  141.1523  164.4691 H       1  UNL1        0.1236
@<TRIPOS>BOND
     1    16    17    1
     2    17     9    1
     3     9    10   ar
     4    10    11   ar
     5    11     8    1
     6     8     1    1
     7     1     2   ar
     8     2     3   ar
     9     3     4    1
    10     3     5   ar
    11     5     6   ar
    12     6     7   ar
    13     7    18    1
    14    18    19    1
    15    19    20    1
    16    11    12   ar
    17    12    13   ar
    18    13    14   ar
    19    14    15    1
    20    14     9   ar
    21     7     1   ar
    22    19    21    1
