@<TRIPOS>MOLECULE
*****
 38 42 0 0 0
SMALL
GASTEIGER

@<TRIPOS>ATOM
      1 C         138.5612  140.0407  156.7309 C.3     1  UNL1        0.1024
      2 C         137.9721  140.6954  155.5168 C.3     1  UNL1        0.0643
      3 C         137.4061  142.0813  155.6122 C.3     1  UNL1        0.1368
      4 C         136.7534  143.3685  155.2035 C.3     1  UNL1        0.0437
      5 C         137.1561  141.7972  154.1607 C.3     1  UNL1        0.0437
      6 O         137.4294  142.8124  156.9217 O.3     1  UNL1       -0.4676
      7 C         138.0186  142.1577  158.1359 C.ar    1  UNL1        0.2219
      8 N         138.0419  142.8889  159.4454 N.ar    1  UNL1       -0.2119
      9 C         138.6311  142.2342  160.6595 C.ar    1  UNL1        0.0851
     10 C         139.1970  140.8483  160.5642 C.ar    1  UNL1        0.0177
     11 C         139.1738  140.1171  159.2547 C.ar    1  UNL1        0.0034
     12 C         138.5845  140.7719  158.0405 C.ar    1  UNL1        0.0488
     13 C         138.6543  142.9654  161.9691 C.ar    1  UNL1        0.0284
     14 C         137.5865  142.7082  162.9907 C.ar    1  UNL1        0.0032
     15 C         137.6098  143.4394  164.3002 C.ar    1  UNL1        0.0115
     16 C         138.7009  144.4277  164.5881 C.ar    1  UNL1        0.0585
     17 CL        138.7242  145.1588  165.8977 Cl      1  UNL1       -0.0822
     18 C         139.7687  144.6847  163.5665 C.ar    1  UNL1        0.0228
     19 C         139.7454  143.9536  162.2570 C.ar    1  UNL1        0.0599
     20 CL        140.8132  144.2106  161.2354 Cl      1  UNL1       -0.0822
     21 C         139.7862  140.1936  161.7783 C.ar    1  UNL1        0.0015
     22 C         141.2091  140.4708  162.1639 C.ar    1  UNL1        0.0009
     23 C         141.7983  139.8160  163.3781 C.ar    1  UNL1        0.0114
     24 C         140.9646  138.8842  164.2067 C.ar    1  UNL1        0.0577
     25 CL        141.5538  138.2295  165.4209 Cl      1  UNL1       -0.0822
     26 C         139.5417  138.6070  163.8212 C.ar    1  UNL1        0.0114
     27 C         138.9525  139.2617  162.6070 C.ar    1  UNL1        0.0009
     28 C         140.5715  138.4572  156.2822 C.2     1  UNL1        0.2655
     29 O         141.4499  139.6455  156.0242 O.2     1  UNL1       -0.2684
     30 N         139.1272  138.6548  156.6356 N.am    1  UNL1       -0.2972
     31 H         138.5507  137.8750  156.8050 H       1  UNL1        0.1500
     32 C         143.7039  134.2564  156.9316 C.3     1  UNL1        0.0515
     33 C         142.5773  135.1405  156.4854 C.ar    1  UNL1        0.0536
     34 C         142.3906  136.5831  156.8512 C.ar    1  UNL1        0.0395
     35 C         141.1375  137.0714  156.1869 C.ar    1  UNL1        0.1549
     36 N         140.5497  135.9305  155.4104 N.ar    1  UNL1       -0.1683
     37 N         141.4396  134.7371  155.5949 N.ar    1  UNL1       -0.2796
     38 H         141.3011  133.8456  155.2007 H       1  UNL1        0.1886
@<TRIPOS>BOND
     1    32    33    1
     2    33    34   ar
     3    34    35   ar
     4    35    28    1
     5    28    29    2
     6    28    30   am
     7     1    30    1
     8     1     2    1
     9     2     3    1
    10     3     4    1
    11     3     5    1
    12     3     6    1
    13     6     7    1
    14     7     8   ar
    15     8     9   ar
    16     9    13    1
    17    13    14   ar
    18    14    15   ar
    19    15    16   ar
    20    16    17    1
    21    16    18   ar
    22    18    19   ar
    23    19    20    1
    24     9    10   ar
    25    10    21    1
    26    21    22   ar
    27    22    23   ar
    28    23    24   ar
    29    24    25    1
    30    24    26   ar
    31    26    27   ar
    32    10    11   ar
    33    11    12   ar
    34    35    36   ar
    35    36    37   ar
    36    37    33   ar
    37    12     1    1
    38    12     7   ar
    39    19    13   ar
    40    27    21   ar
    41    30    31    1
    42    37    38    1
@<TRIPOS>MOLECULE
*****
 38 42 0 0 0
SMALL
GASTEIGER

@<TRIPOS>ATOM
      1 C         139.6740  140.5906  156.4974 C.3     1  UNL1        0.1024
      2 C         138.7017  140.8728  155.3907 C.3     1  UNL1        0.0643
      3 C         137.5501  141.8052  155.6238 C.3     1  UNL1        0.1368
      4 C         136.3113  142.6088  155.3598 C.3     1  UNL1        0.0437
      5 C         137.2991  141.4342  154.1923 C.3     1  UNL1        0.0437
      6 O         137.3708  142.4554  156.9636 O.3     1  UNL1       -0.4676
      7 C         138.3431  142.1732  158.0704 C.ar    1  UNL1        0.2219
      8 N         138.1639  142.8234  159.4102 N.ar    1  UNL1       -0.2119
      9 C         139.1362  142.5411  160.5169 C.ar    1  UNL1        0.0851
     10 C         140.2879  141.6087  160.2838 C.ar    1  UNL1        0.0177
     11 C         140.4671  140.9585  158.9440 C.ar    1  UNL1        0.0034
     12 C         139.4947  141.2408  157.8372 C.ar    1  UNL1        0.0488
     13 C         138.9569  143.1913  161.8567 C.ar    1  UNL1        0.0284
     14 C         139.6505  144.4862  162.1608 C.ar    1  UNL1        0.0032
     15 C         139.4712  145.1364  163.5006 C.ar    1  UNL1        0.0115
     16 C         138.5984  144.4917  164.5364 C.ar    1  UNL1        0.0585
     17 CL        138.4191  145.1419  165.8762 Cl      1  UNL1       -0.0822
     18 C         137.9049  143.1969  164.2322 C.ar    1  UNL1        0.0228
     19 C         138.0842  142.5467  162.8924 C.ar    1  UNL1        0.0599
     20 CL        137.3906  141.2519  162.5883 Cl      1  UNL1       -0.0822
     21 C         141.2602  141.3264  161.3905 C.ar    1  UNL1        0.0015
     22 C         142.5126  142.1426  161.5149 C.ar    1  UNL1        0.0009
     23 C         143.4849  141.8603  162.6217 C.ar    1  UNL1        0.0114
     24 C         143.2049  140.7619  163.6041 C.ar    1  UNL1        0.0577
     25 CL        144.1772  140.4797  164.7108 Cl      1  UNL1       -0.0822
     26 C         141.9525  139.9458  163.4797 C.ar    1  UNL1        0.0114
     27 C         140.9802  140.2280  162.3730 C.ar    1  UNL1        0.0009
     28 C         140.7125  138.2142  156.6547 C.2     1  UNL1        0.2655
     29 O         139.4476  137.7028  157.2782 O.2     1  UNL1       -0.2684
     30 N         140.8257  139.6581  156.2644 N.am    1  UNL1       -0.2972
     31 H         141.6558  139.9938  155.8552 H       1  UNL1        0.1500
     32 C         143.5236  133.8593  155.6485 C.3     1  UNL1        0.0515
     33 C         143.1562  135.2800  155.9592 C.ar    1  UNL1        0.0536
     34 C         141.7643  135.8165  156.1166 C.ar    1  UNL1        0.0395
     35 C         141.8640  137.2818  156.4217 C.ar    1  UNL1        0.1549
     36 N         143.3176  137.6509  156.4528 N.ar    1  UNL1       -0.1683
     37 N         144.1162  136.4138  156.1670 N.ar    1  UNL1       -0.2796
     38 H         145.0980  136.3560  156.1234 H       1  UNL1        0.1886
@<TRIPOS>BOND
     1    32    33    1
     2    33    34   ar
     3    34    35   ar
     4    35    28    1
     5    28    29    2
     6    28    30   am
     7     1    30    1
     8     1     2    1
     9     2     3    1
    10     3     4    1
    11     3     5    1
    12     3     6    1
    13     6     7    1
    14     7     8   ar
    15     8     9   ar
    16     9    13    1
    17    13    14   ar
    18    14    15   ar
    19    15    16   ar
    20    16    17    1
    21    16    18   ar
    22    18    19   ar
    23    19    20    1
    24     9    10   ar
    25    10    21    1
    26    21    22   ar
    27    22    23   ar
    28    23    24   ar
    29    24    25    1
    30    24    26   ar
    31    26    27   ar
    32    10    11   ar
    33    11    12   ar
    34    35    36   ar
    35    36    37   ar
    36    37    33   ar
    37    12     1    1
    38    12     7   ar
    39    19    13   ar
    40    27    21   ar
    41    30    31    1
    42    37    38    1
@<TRIPOS>MOLECULE
*****
 38 42 0 0 0
SMALL
GASTEIGER

@<TRIPOS>ATOM
      1 C         141.9020  139.9277  157.3501 C.3     1  UNL1        0.1024
      2 C         141.2813  139.2445  156.1677 C.3     1  UNL1        0.0643
      3 C         140.0860  138.3581  156.3559 C.3     1  UNL1        0.1368
      4 C         138.9537  137.4303  156.0287 C.3     1  UNL1        0.0437
      5 C         140.2673  138.2391  154.8717 C.3     1  UNL1        0.0437
      6 O         139.5114  138.1548  157.7265 O.3     1  UNL1       -0.4676
      7 C         140.1321  138.8379  158.9089 C.ar    1  UNL1        0.2219
      8 N         139.5575  138.6346  160.2795 N.ar    1  UNL1       -0.2119
      9 C         140.1782  139.3178  161.4618 C.ar    1  UNL1        0.0851
     10 C         141.3736  140.2043  161.2736 C.ar    1  UNL1        0.0177
     11 C         141.9481  140.4076  159.9030 C.ar    1  UNL1        0.0034
     12 C         141.3274  139.7244  158.7206 C.ar    1  UNL1        0.0488
     13 C         139.6036  139.1145  162.8324 C.ar    1  UNL1        0.0284
     14 C         138.5742  140.0678  163.3631 C.ar    1  UNL1        0.0032
     15 C         137.9996  139.8645  164.7337 C.ar    1  UNL1        0.0115
     16 C         138.4545  138.7078  165.5736 C.ar    1  UNL1        0.0585
     17 CL        137.8799  138.5045  166.9442 Cl      1  UNL1       -0.0822
     18 C         139.4838  137.7546  165.0429 C.ar    1  UNL1        0.0228
     19 C         140.0584  137.9579  163.6723 C.ar    1  UNL1        0.0599
     20 CL        141.0878  137.0046  163.1416 Cl      1  UNL1       -0.0822
     21 C         141.9942  140.8874  162.4560 C.ar    1  UNL1        0.0015
     22 C         143.0482  140.1853  163.2599 C.ar    1  UNL1        0.0009
     23 C         143.6689  140.8685  164.4423 C.ar    1  UNL1        0.0114
     24 C         143.2356  142.2538  164.8208 C.ar    1  UNL1        0.0577
     25 CL        143.8563  142.9369  166.0031 Cl      1  UNL1       -0.0822
     26 C         142.1817  142.9559  164.0168 C.ar    1  UNL1        0.0114
     27 C         141.5610  142.2728  162.8345 C.ar    1  UNL1        0.0009
     28 C         144.3739  140.2461  156.6162 C.2     1  UNL1        0.2655
     29 O         144.4551  138.7915  156.2588 O.2     1  UNL1       -0.2684
     30 N         143.0973  140.8142  157.1619 N.am    1  UNL1       -0.2972
     31 H         143.0440  141.7689  157.3964 H       1  UNL1        0.1500
     32 C         148.8564  142.2976  154.7245 C.3     1  UNL1        0.0515
     33 C         147.6296  142.0755  155.5585 C.ar    1  UNL1        0.0536
     34 C         146.6293  140.9722  155.3791 C.ar    1  UNL1        0.0395
     35 C         145.5692  141.1326  156.4280 C.ar    1  UNL1        0.1549
     36 N         145.9142  142.3349  157.2558 N.ar    1  UNL1       -0.1683
     37 N         147.1876  142.9178  156.7184 N.ar    1  UNL1       -0.2796
     38 H         147.6518  143.7134  157.0659 H       1  UNL1        0.1886
@<TRIPOS>BOND
     1    32    33    1
     2    33    34   ar
     3    34    35   ar
     4    35    28    1
     5    28    29    2
     6    28    30   am
     7     1    30    1
     8     1     2    1
     9     2     3    1
    10     3     4    1
    11     3     5    1
    12     3     6    1
    13     6     7    1
    14     7     8   ar
    15     8     9   ar
    16     9    13    1
    17    13    14   ar
    18    14    15   ar
    19    15    16   ar
    20    16    17    1
    21    16    18   ar
    22    18    19   ar
    23    19    20    1
    24     9    10   ar
    25    10    21    1
    26    21    22   ar
    27    22    23   ar
    28    23    24   ar
    29    24    25    1
    30    24    26   ar
    31    26    27   ar
    32    10    11   ar
    33    11    12   ar
    34    35    36   ar
    35    36    37   ar
    36    37    33   ar
    37    12     1    1
    38    12     7   ar
    39    19    13   ar
    40    27    21   ar
    41    30    31    1
    42    37    38    1
@<TRIPOS>MOLECULE
*****
 38 42 0 0 0
SMALL
GASTEIGER

@<TRIPOS>ATOM
      1 C         143.7509  140.0371  156.0042 C.3     1  UNL1        0.1024
      2 C         144.4939  140.6937  154.8786 C.3     1  UNL1        0.0643
      3 C         145.3667  141.8831  155.1492 C.3     1  UNL1        0.1368
      4 C         146.3080  143.0253  154.9055 C.3     1  UNL1        0.0437
      5 C         145.5638  141.7469  153.6685 C.3     1  UNL1        0.0437
      6 O         145.4966  142.4161  156.5453 O.3     1  UNL1       -0.4676
      7 C         144.7537  141.7595  157.6709 C.ar    1  UNL1        0.2219
      8 N         144.8836  142.2924  159.0670 N.ar    1  UNL1       -0.2119
      9 C         144.1406  141.6359  160.1925 C.ar    1  UNL1        0.0851
     10 C         143.2677  140.4464  159.9220 C.ar    1  UNL1        0.0177
     11 C         143.1378  139.9134  158.5259 C.ar    1  UNL1        0.0034
     12 C         143.8808  140.5701  157.4003 C.ar    1  UNL1        0.0488
     13 C         144.2705  142.1688  161.5886 C.ar    1  UNL1        0.0284
     14 C         145.2660  141.5629  162.5331 C.ar    1  UNL1        0.0032
     15 C         145.3959  142.0959  163.9292 C.ar    1  UNL1        0.0115
     16 C         144.5303  143.2347  164.3808 C.ar    1  UNL1        0.0585
     17 CL        144.6602  143.7676  165.7769 Cl      1  UNL1       -0.0822
     18 C         143.5349  143.8405  163.4364 C.ar    1  UNL1        0.0228
     19 C         143.4050  143.3076  162.0403 C.ar    1  UNL1        0.0599
     20 CL        142.4096  143.9135  161.0958 Cl      1  UNL1       -0.0822
     21 C         142.5248  139.7898  161.0476 C.ar    1  UNL1        0.0015
     22 C         143.1215  138.6070  161.7510 C.ar    1  UNL1        0.0009
     23 C         142.3785  137.9505  162.8767 C.ar    1  UNL1        0.0114
     24 C         141.0388  138.4768  163.2987 C.ar    1  UNL1        0.0577
     25 CL        140.2958  137.8202  164.4243 Cl      1  UNL1       -0.0822
     26 C         140.4420  139.6596  162.5953 C.ar    1  UNL1        0.0114
     27 C         141.1850  140.3161  161.4697 C.ar    1  UNL1        0.0009
     28 C         143.4969  137.5029  155.4909 C.2     1  UNL1        0.2655
     29 O         144.9886  137.3478  155.5186 O.2     1  UNL1       -0.2684
     30 N         142.8780  138.8476  155.7337 N.am    1  UNL1       -0.2972
     31 H         141.8990  138.9494  155.7155 H       1  UNL1        0.1500
     32 C         141.1509  133.4445  153.0606 C.3     1  UNL1        0.0515
     33 C         141.5457  134.4480  154.1033 C.ar    1  UNL1        0.0536
     34 C         142.5395  135.5576  153.9275 C.ar    1  UNL1        0.0395
     35 C         142.6240  136.3134  155.2204 C.ar    1  UNL1        0.1549
     36 N         141.6825  135.6708  156.1953 N.ar    1  UNL1       -0.1683
     37 N         141.0160  134.5179  155.5050 N.ar    1  UNL1       -0.2796
     38 H         140.3482  133.9133  155.9021 H       1  UNL1        0.1886
@<TRIPOS>BOND
     1    32    33    1
     2    33    34   ar
     3    34    35   ar
     4    35    28    1
     5    28    29    2
     6    28    30   am
     7     1    30    1
     8     1     2    1
     9     2     3    1
    10     3     4    1
    11     3     5    1
    12     3     6    1
    13     6     7    1
    14     7     8   ar
    15     8     9   ar
    16     9    13    1
    17    13    14   ar
    18    14    15   ar
    19    15    16   ar
    20    16    17    1
    21    16    18   ar
    22    18    19   ar
    23    19    20    1
    24     9    10   ar
    25    10    21    1
    26    21    22   ar
    27    22    23   ar
    28    23    24   ar
    29    24    25    1
    30    24    26   ar
    31    26    27   ar
    32    10    11   ar
    33    11    12   ar
    34    35    36   ar
    35    36    37   ar
    36    37    33   ar
    37    12     1    1
    38    12     7   ar
    39    19    13   ar
    40    27    21   ar
    41    30    31    1
    42    37    38    1
@<TRIPOS>MOLECULE
*****
 38 42 0 0 0
SMALL
GASTEIGER

@<TRIPOS>ATOM
      1 C         139.9223  140.8544  156.9762 C.3     1  UNL1        0.1024
      2 C         138.7865  141.0038  156.0080 C.3     1  UNL1        0.0643
      3 C         137.3727  140.8292  156.4777 C.3     1  UNL1        0.1368
      4 C         135.8748  140.7586  156.4440 C.3     1  UNL1        0.0437
      5 C         137.1304  141.1287  155.0280 C.3     1  UNL1        0.0437
      6 O         137.0948  140.5051  157.9157 O.3     1  UNL1       -0.4676
      7 C         138.2306  140.3557  158.8839 C.ar    1  UNL1        0.2219
      8 N         137.9526  140.0316  160.3218 N.ar    1  UNL1       -0.2119
      9 C         139.0884  139.8822  161.2901 C.ar    1  UNL1        0.0851
     10 C         140.5023  140.0568  160.8204 C.ar    1  UNL1        0.0177
     11 C         140.7803  140.3808  159.3824 C.ar    1  UNL1        0.0034
     12 C         139.6444  140.5303  158.4142 C.ar    1  UNL1        0.0488
     13 C         138.8105  139.5581  162.7280 C.ar    1  UNL1        0.0284
     14 C         138.9463  138.1471  163.2187 C.ar    1  UNL1        0.0032
     15 C         138.6683  137.8230  164.6566 C.ar    1  UNL1        0.0115
     16 C         138.2546  138.9100  165.6039 C.ar    1  UNL1        0.0585
     17 CL        137.9766  138.5859  167.0419 Cl      1  UNL1       -0.0822
     18 C         138.1188  140.3209  165.1133 C.ar    1  UNL1        0.0228
     19 C         138.3967  140.6450  163.6754 C.ar    1  UNL1        0.0599
     20 CL        138.2609  142.0559  163.1847 Cl      1  UNL1       -0.0822
     21 C         141.6381  139.9073  161.7886 C.ar    1  UNL1        0.0015
     22 C         142.3849  138.6093  161.8741 C.ar    1  UNL1        0.0009
     23 C         143.5208  138.4599  162.8424 C.ar    1  UNL1        0.0114
     24 C         143.9098  139.6085  163.7251 C.ar    1  UNL1        0.0577
     25 CL        145.0457  139.4590  164.6934 Cl      1  UNL1       -0.0822
     26 C         143.1630  140.9065  163.6397 C.ar    1  UNL1        0.0114
     27 C         142.0272  141.0560  162.6714 C.ar    1  UNL1        0.0009
     28 C         142.2056  139.8275  156.2819 C.2     1  UNL1        0.2655
     29 O         141.6612  138.4514  156.5271 O.2     1  UNL1       -0.2684
     30 N         141.3362  141.0290  156.5065 N.am    1  UNL1       -0.2972
     31 H         141.6935  141.9321  156.3456 H       1  UNL1        0.1500
     32 C         146.3971  141.1093  153.3375 C.3     1  UNL1        0.0515
     33 C         145.5461  140.5912  154.4588 C.ar    1  UNL1        0.0536
     34 C         144.0475  140.6233  154.5158 C.ar    1  UNL1        0.0395
     35 C         143.6195  140.0020  155.8122 C.ar    1  UNL1        0.1549
     36 N         144.8535  139.5860  156.5566 N.ar    1  UNL1       -0.1683
     37 N         146.0442  139.9501  155.7201 N.ar    1  UNL1       -0.2796
     38 H         146.9871  139.7954  155.9573 H       1  UNL1        0.1886
@<TRIPOS>BOND
     1    32    33    1
     2    33    34   ar
     3    34    35   ar
     4    35    28    1
     5    28    29    2
     6    28    30   am
     7     1    30    1
     8     1     2    1
     9     2     3    1
    10     3     4    1
    11     3     5    1
    12     3     6    1
    13     6     7    1
    14     7     8   ar
    15     8     9   ar
    16     9    13    1
    17    13    14   ar
    18    14    15   ar
    19    15    16   ar
    20    16    17    1
    21    16    18   ar
    22    18    19   ar
    23    19    20    1
    24     9    10   ar
    25    10    21    1
    26    21    22   ar
    27    22    23   ar
    28    23    24   ar
    29    24    25    1
    30    24    26   ar
    31    26    27   ar
    32    10    11   ar
    33    11    12   ar
    34    35    36   ar
    35    36    37   ar
    36    37    33   ar
    37    12     1    1
    38    12     7   ar
    39    19    13   ar
    40    27    21   ar
    41    30    31    1
    42    37    38    1
@<TRIPOS>MOLECULE
*****
 38 42 0 0 0
SMALL
GASTEIGER

@<TRIPOS>ATOM
      1 C         140.9257  139.2989  156.5054 C.3     1  UNL1        0.1024
      2 C         141.7003  138.5585  155.4558 C.3     1  UNL1        0.0643
      3 C         142.8468  137.6764  155.8524 C.3     1  UNL1        0.1368
      4 C         144.0038  136.7293  155.7323 C.3     1  UNL1        0.0437
      5 C         142.8768  137.4891  154.3645 C.3     1  UNL1        0.0437
      6 O         143.2188  137.5348  157.2987 O.3     1  UNL1       -0.4676
      7 C         142.4442  138.2752  158.3483 C.ar    1  UNL1        0.2219
      8 N         142.8161  138.1335  159.7945 N.ar    1  UNL1       -0.2119
      9 C         142.0415  138.8739  160.8441 C.ar    1  UNL1        0.0851
     10 C         140.8949  139.7561  160.4475 C.ar    1  UNL1        0.0177
     11 C         140.5229  139.8977  159.0013 C.ar    1  UNL1        0.0034
     12 C         141.2976  139.1573  157.9516 C.ar    1  UNL1        0.0488
     13 C         142.4134  138.7323  162.2904 C.ar    1  UNL1        0.0284
     14 C         141.6364  137.8049  163.1772 C.ar    1  UNL1        0.0032
     15 C         142.0083  137.6633  164.6235 C.ar    1  UNL1        0.0115
     16 C         143.1572  138.4489  165.1828 C.ar    1  UNL1        0.0585
     17 CL        143.5292  138.3073  166.6291 Cl      1  UNL1       -0.0822
     18 C         143.9342  139.3762  164.2960 C.ar    1  UNL1        0.0228
     19 C         143.5622  139.5178  162.8497 C.ar    1  UNL1        0.0599
     20 CL        144.3392  140.4451  161.9629 Cl      1  UNL1       -0.0822
     21 C         140.1203  140.4965  161.4971 C.ar    1  UNL1        0.0015
     22 C         138.8314  139.9315  162.0163 C.ar    1  UNL1        0.0009
     23 C         138.0568  140.6720  163.0660 C.ar    1  UNL1        0.0114
     24 C         138.5711  141.9774  163.5964 C.ar    1  UNL1        0.0577
     25 CL        137.7964  142.7178  164.6460 Cl      1  UNL1       -0.0822
     26 C         139.8599  142.5424  163.0772 C.ar    1  UNL1        0.0114
     27 C         140.6345  141.8020  162.0276 C.ar    1  UNL1        0.0009
     28 C         138.4502  139.5752  155.7665 C.2     1  UNL1        0.2655
     29 O         138.2680  138.0873  155.8209 O.2     1  UNL1       -0.2684
     30 N         139.7791  140.1811  156.1088 N.am    1  UNL1       -0.2972
     31 H         139.8987  141.1576  156.0731 H       1  UNL1        0.1500
     32 C         134.4554  141.6976  153.0431 C.3     1  UNL1        0.0515
     33 C         135.4674  141.4328  154.1181 C.ar    1  UNL1        0.0536
     34 C         136.5135  140.3580  154.0988 C.ar    1  UNL1        0.0395
     35 C         137.3037  140.4573  155.3699 C.ar    1  UNL1        0.1549
     36 N         136.7460  141.5936  156.1748 N.ar    1  UNL1       -0.1683
     37 N         135.6111  142.1965  155.4012 N.ar    1  UNL1       -0.2796
     38 H         135.0578  142.9595  155.6856 H       1  UNL1        0.1886
@<TRIPOS>BOND
     1    32    33    1
     2    33    34   ar
     3    34    35   ar
     4    35    28    1
     5    28    29    2
     6    28    30   am
     7     1    30    1
     8     1     2    1
     9     2     3    1
    10     3     4    1
    11     3     5    1
    12     3     6    1
    13     6     7    1
    14     7     8   ar
    15     8     9   ar
    16     9    13    1
    17    13    14   ar
    18    14    15   ar
    19    15    16   ar
    20    16    17    1
    21    16    18   ar
    22    18    19   ar
    23    19    20    1
    24     9    10   ar
    25    10    21    1
    26    21    22   ar
    27    22    23   ar
    28    23    24   ar
    29    24    25    1
    30    24    26   ar
    31    26    27   ar
    32    10    11   ar
    33    11    12   ar
    34    35    36   ar
    35    36    37   ar
    36    37    33   ar
    37    12     1    1
    38    12     7   ar
    39    19    13   ar
    40    27    21   ar
    41    30    31    1
    42    37    38    1
@<TRIPOS>MOLECULE
*****
 38 42 0 0 0
SMALL
GASTEIGER

@<TRIPOS>ATOM
      1 C         137.9434  142.2017  156.4927 C.3     1  UNL1        0.1024
      2 C         138.3219  142.7194  155.1367 C.3     1  UNL1        0.0643
      3 C         139.7582  143.0151  154.8210 C.3     1  UNL1        0.1368
      4 C         140.9737  143.4391  154.0512 C.3     1  UNL1        0.0437
      5 C         139.1227  143.3843  153.5134 C.3     1  UNL1        0.0437
      6 O         140.8158  142.7932  155.8612 O.3     1  UNL1       -0.4676
      7 C         140.4373  142.2756  157.2172 C.ar    1  UNL1        0.2219
      8 N         141.4949  142.0536  158.2574 N.ar    1  UNL1       -0.2119
      9 C         141.1163  141.5360  159.6134 C.ar    1  UNL1        0.0851
     10 C         139.6800  141.2402  159.9292 C.ar    1  UNL1        0.0177
     11 C         138.6224  141.4621  158.8889 C.ar    1  UNL1        0.0034
     12 C         139.0010  141.9798  157.5329 C.ar    1  UNL1        0.0488
     13 C         142.1740  141.3140  160.6536 C.ar    1  UNL1        0.0284
     14 C         142.8573  139.9826  160.7564 C.ar    1  UNL1        0.0032
     15 C         143.9149  139.7607  161.7966 C.ar    1  UNL1        0.0115
     16 C         144.2893  140.8702  162.7341 C.ar    1  UNL1        0.0585
     17 CL        145.3470  140.6483  163.7744 Cl      1  UNL1       -0.0822
     18 C         143.6061  142.2016  162.6313 C.ar    1  UNL1        0.0228
     19 C         142.5484  142.4235  161.5911 C.ar    1  UNL1        0.0599
     20 CL        141.8652  143.7548  161.4883 Cl      1  UNL1       -0.0822
     21 C         139.3015  140.7225  161.2851 C.ar    1  UNL1        0.0015
     22 C         139.2598  139.2447  161.5390 C.ar    1  UNL1        0.0009
     23 C         138.8812  138.7271  162.8950 C.ar    1  UNL1        0.0114
     24 C         138.5443  139.6872  163.9971 C.ar    1  UNL1        0.0577
     25 CL        138.1657  139.1695  165.3531 Cl      1  UNL1       -0.0822
     26 C         138.5860  141.1649  163.7432 C.ar    1  UNL1        0.0114
     27 C         138.9645  141.6826  162.3873 C.ar    1  UNL1        0.0009
     28 C         135.8774  140.6360  156.3177 C.2     1  UNL1        0.2655
     29 O         136.6841  139.6618  155.5112 O.2     1  UNL1       -0.2684
     30 N         136.5071  141.9059  156.8084 N.am    1  UNL1       -0.2972
     31 H         135.9777  142.5453  157.3377 H       1  UNL1        0.1500
     32 C         130.6018  140.5656  156.1108 C.3     1  UNL1        0.0515
     33 C         132.0162  140.3078  156.5383 C.ar    1  UNL1        0.0536
     34 C         133.2494  140.8505  155.8790 C.ar    1  UNL1        0.0395
     35 C         134.4412  140.3402  156.6334 C.ar    1  UNL1        0.1549
     36 N         133.9446  139.4821  157.7591 N.ar    1  UNL1       -0.1683
     37 N         132.4459  139.4621  157.7003 N.ar    1  UNL1       -0.2796
     38 H         131.8491  138.9787  158.3162 H       1  UNL1        0.1886
@<TRIPOS>BOND
     1    32    33    1
     2    33    34   ar
     3    34    35   ar
     4    35    28    1
     5    28    29    2
     6    28    30   am
     7     1    30    1
     8     1     2    1
     9     2     3    1
    10     3     4    1
    11     3     5    1
    12     3     6    1
    13     6     7    1
    14     7     8   ar
    15     8     9   ar
    16     9    13    1
    17    13    14   ar
    18    14    15   ar
    19    15    16   ar
    20    16    17    1
    21    16    18   ar
    22    18    19   ar
    23    19    20    1
    24     9    10   ar
    25    10    21    1
    26    21    22   ar
    27    22    23   ar
    28    23    24   ar
    29    24    25    1
    30    24    26   ar
    31    26    27   ar
    32    10    11   ar
    33    11    12   ar
    34    35    36   ar
    35    36    37   ar
    36    37    33   ar
    37    12     1    1
    38    12     7   ar
    39    19    13   ar
    40    27    21   ar
    41    30    31    1
    42    37    38    1
@<TRIPOS>MOLECULE
*****
 38 42 0 0 0
SMALL
GASTEIGER

@<TRIPOS>ATOM
      1 C         138.4457  143.5385  156.8239 C.3     1  UNL1        0.1024
      2 C         138.8779  144.2716  155.5887 C.3     1  UNL1        0.0643
      3 C         140.1851  145.0069  155.5718 C.3     1  UNL1        0.1368
      4 C         141.3261  145.8422  155.0715 C.3     1  UNL1        0.0437
      5 C         139.7064  145.2949  154.1798 C.3     1  UNL1        0.0437
      6 O         141.0602  145.0091  156.7901 O.3     1  UNL1       -0.4676
      7 C         140.6280  144.2759  158.0253 C.ar    1  UNL1        0.2219
      8 N         141.5031  144.2781  159.2436 N.ar    1  UNL1       -0.2119
      9 C         141.0709  143.5450  160.4788 C.ar    1  UNL1        0.0851
     10 C         139.7636  142.8096  160.4957 C.ar    1  UNL1        0.0177
     11 C         138.8885  142.8075  159.2774 C.ar    1  UNL1        0.0034
     12 C         139.3208  143.5406  158.0422 C.ar    1  UNL1        0.0488
     13 C         141.9460  143.5471  161.6970 C.ar    1  UNL1        0.0284
     14 C         142.9975  142.4908  161.8671 C.ar    1  UNL1        0.0032
     15 C         143.8726  142.4930  163.0854 C.ar    1  UNL1        0.0115
     16 C         143.6962  143.5514  164.1336 C.ar    1  UNL1        0.0585
     17 CL        144.5713  143.5536  165.3519 Cl      1  UNL1       -0.0822
     18 C         142.6448  144.6076  163.9635 C.ar    1  UNL1        0.0228
     19 C         141.7697  144.6055  162.7452 C.ar    1  UNL1        0.0599
     20 CL        140.7183  145.6617  162.5751 Cl      1  UNL1       -0.0822
     21 C         139.3314  142.0765  161.7309 C.ar    1  UNL1        0.0015
     22 C         139.7761  140.6620  161.9577 C.ar    1  UNL1        0.0009
     23 C         139.3438  139.9288  163.1929 C.ar    1  UNL1        0.0114
     24 C         138.4670  140.6102  164.2013 C.ar    1  UNL1        0.0577
     25 CL        138.0348  139.8771  165.4364 Cl      1  UNL1       -0.0822
     26 C         138.0224  142.0247  163.9745 C.ar    1  UNL1        0.0114
     27 C         138.4545  142.7579  162.7393 C.ar    1  UNL1        0.0009
     28 C         136.7367  141.9602  155.6669 C.2     1  UNL1        0.2655
     29 O         137.6425  141.8526  154.4760 O.2     1  UNL1       -0.2684
     30 N         137.1383  142.8031  156.8408 N.am    1  UNL1       -0.2972
     31 H         136.5439  142.8738  157.6224 H       1  UNL1        0.1500
     32 C         132.8175  138.7164  157.0805 C.3     1  UNL1        0.0515
     33 C         133.6280  139.7339  156.3335 C.ar    1  UNL1        0.0536
     34 C         135.0012  140.2111  156.7030 C.ar    1  UNL1        0.0395
     35 C         135.4295  141.2249  155.6838 C.ar    1  UNL1        0.1549
     36 N         134.3209  141.3743  154.6844 N.ar    1  UNL1       -0.1683
     37 N         133.2075  140.4528  155.0859 N.ar    1  UNL1       -0.2796
     38 H         132.3512  140.3397  154.6136 H       1  UNL1        0.1886
@<TRIPOS>BOND
     1    32    33    1
     2    33    34   ar
     3    34    35   ar
     4    35    28    1
     5    28    29    2
     6    28    30   am
     7     1    30    1
     8     1     2    1
     9     2     3    1
    10     3     4    1
    11     3     5    1
    12     3     6    1
    13     6     7    1
    14     7     8   ar
    15     8     9   ar
    16     9    13    1
    17    13    14   ar
    18    14    15   ar
    19    15    16   ar
    20    16    17    1
    21    16    18   ar
    22    18    19   ar
    23    19    20    1
    24     9    10   ar
    25    10    21    1
    26    21    22   ar
    27    22    23   ar
    28    23    24   ar
    29    24    25    1
    30    24    26   ar
    31    26    27   ar
    32    10    11   ar
    33    11    12   ar
    34    35    36   ar
    35    36    37   ar
    36    37    33   ar
    37    12     1    1
    38    12     7   ar
    39    19    13   ar
    40    27    21   ar
    41    30    31    1
    42    37    38    1
@<TRIPOS>MOLECULE
*****
 38 42 0 0 0
SMALL
GASTEIGER

@<TRIPOS>ATOM
      1 C         139.9042  141.0360  156.8521 C.3     1  UNL1        0.1024
      2 C         138.7513  141.1453  155.8988 C.3     1  UNL1        0.0643
      3 C         137.3468  140.9775  156.3982 C.3     1  UNL1        0.1368
      4 C         135.8491  140.8961  156.3923 C.3     1  UNL1        0.0437
      5 C         137.0781  141.2263  154.9436 C.3     1  UNL1        0.0437
      6 O         137.0953  140.7004  157.8507 O.3     1  UNL1       -0.4676
      7 C         138.2483  140.5912  158.8040 C.ar    1  UNL1        0.2219
      8 N         137.9967  140.3141  160.2566 N.ar    1  UNL1       -0.2119
      9 C         139.1497  140.2048  161.2098 C.ar    1  UNL1        0.0851
     10 C         140.5542  140.3726  160.7105 C.ar    1  UNL1        0.0177
     11 C         140.8057  140.6497  159.2580 C.ar    1  UNL1        0.0034
     12 C         139.6527  140.7590  158.3047 C.ar    1  UNL1        0.0488
     13 C         138.8982  139.9277  162.6624 C.ar    1  UNL1        0.0284
     14 C         138.5248  141.0491  163.5861 C.ar    1  UNL1        0.0032
     15 C         138.2733  140.7720  165.0387 C.ar    1  UNL1        0.0115
     16 C         138.3952  139.3736  165.5676 C.ar    1  UNL1        0.0585
     17 CL        138.1437  139.0965  167.0201 Cl      1  UNL1       -0.0822
     18 C         138.7686  138.2523  164.6438 C.ar    1  UNL1        0.0228
     19 C         139.0201  138.5294  163.1913 C.ar    1  UNL1        0.0599
     20 CL        139.3934  137.4081  162.2675 Cl      1  UNL1       -0.0822
     21 C         141.7071  140.2634  161.6638 C.ar    1  UNL1        0.0015
     22 C         142.0971  141.4408  162.5073 C.ar    1  UNL1        0.0009
     23 C         143.2501  141.3315  163.4606 C.ar    1  UNL1        0.0114
     24 C         144.0131  140.0448  163.5704 C.ar    1  UNL1        0.0577
     25 CL        145.1660  139.9355  164.5237 Cl      1  UNL1       -0.0822
     26 C         143.6231  138.8673  162.7269 C.ar    1  UNL1        0.0114
     27 C         142.4702  138.9766  161.7736 C.ar    1  UNL1        0.0009
     28 C         142.0007  142.5275  156.4912 C.2     1  UNL1        0.2655
     29 O         141.2882  143.6833  157.1289 O.2     1  UNL1       -0.2684
     30 N         141.3087  141.2039  156.3528 N.am    1  UNL1       -0.2972
     31 H         141.7763  140.4453  155.9343 H       1  UNL1        0.1500
     32 C         147.2421  142.1092  156.0075 C.3     1  UNL1        0.0515
     33 C         145.8144  142.5031  155.7696 C.ar    1  UNL1        0.0536
     34 C         144.6319  142.0650  156.5818 C.ar    1  UNL1        0.0395
     35 C         143.4052  142.6953  155.9920 C.ar    1  UNL1        0.1549
     36 N         143.8296  143.5230  154.8152 N.ar    1  UNL1       -0.1683
     37 N         145.3185  143.4042  154.6777 N.ar    1  UNL1       -0.2796
     38 H         145.8730  143.8410  153.9914 H       1  UNL1        0.1886
@<TRIPOS>BOND
     1    32    33    1
     2    33    34   ar
     3    34    35   ar
     4    35    28    1
     5    28    29    2
     6    28    30   am
     7     1    30    1
     8     1     2    1
     9     2     3    1
    10     3     4    1
    11     3     5    1
    12     3     6    1
    13     6     7    1
    14     7     8   ar
    15     8     9   ar
    16     9    13    1
    17    13    14   ar
    18    14    15   ar
    19    15    16   ar
    20    16    17    1
    21    16    18   ar
    22    18    19   ar
    23    19    20    1
    24     9    10   ar
    25    10    21    1
    26    21    22   ar
    27    22    23   ar
    28    23    24   ar
    29    24    25    1
    30    24    26   ar
    31    26    27   ar
    32    10    11   ar
    33    11    12   ar
    34    35    36   ar
    35    36    37   ar
    36    37    33   ar
    37    12     1    1
    38    12     7   ar
    39    19    13   ar
    40    27    21   ar
    41    30    31    1
    42    37    38    1
