@<TRIPOS>MOLECULE
*****
 38 42 0 0 0
SMALL
GASTEIGER

@<TRIPOS>ATOM
      1 C         142.9147  143.4632  158.4318 C.2     1  UNL1        0.4052
      2 O         142.9567  142.7530  157.1111 O.2     1  UNL1       -0.2262
      3 N         143.2968  142.7360  159.6868 N.am    1  UNL1       -0.2460
      4 C         143.3036  143.3117  161.0719 C.3     1  UNL1        0.0968
      5 C         143.7502  142.2369  162.0183 C.3     1  UNL1        0.0234
      6 C         144.2156  140.9873  162.7051 C.3     1  UNL1        0.0230
      7 C         144.0193  140.9971  161.2181 C.3     1  UNL1        0.0234
      8 C         143.7391  141.3056  159.7771 C.3     1  UNL1        0.0968
      9 O         142.4906  144.9005  158.4972 O.3     1  UNL1       -0.4295
     10 C         141.0494  145.2475  158.7266 C.3     1  UNL1        0.2368
     11 C         138.8695  142.6167  160.7459 C.ar    1  UNL1        0.0713
     12 C         139.6289  143.2676  159.6280 C.ar    1  UNL1        0.0098
     13 C         140.2900  144.5966  159.8445 C.ar    1  UNL1        0.0250
     14 C         140.1917  145.2746  161.1789 C.ar    1  UNL1        0.0365
     15 C         139.4323  144.6237  162.2968 C.ar    1  UNL1        0.1473
     16 C         138.7712  143.2948  162.0803 C.ar    1  UNL1        0.0474
     17 N         137.5473  139.9589  160.3129 N.1     1  UNL1       -0.1908
     18 C         138.2084  141.2878  160.5294 C.1     1  UNL1        0.1005
     19 O         139.3341  145.3018  163.6312 O.3     1  UNL1       -0.4044
     20 C         139.5628  144.5179  164.8894 C.3     1  UNL1        0.5753
     21 F         139.7915  143.7340  166.1477 F       1  UNL1       -0.1328
     22 F         138.2457  144.9948  165.4260 F       1  UNL1       -0.1328
     23 F         140.8798  144.0409  164.3529 F       1  UNL1       -0.1328
     24 C         144.5977  140.2601  163.9602 C.3     1  UNL1        0.0898
     25 N         143.6682  140.2566  165.1375 N.am    1  UNL1       -0.3009
     26 C         143.4199  141.5237  165.9009 C.2     1  UNL1        0.2456
     27 O         144.1010  142.7944  165.4870 O.2     1  UNL1       -0.2702
     28 H         143.2211  139.4226  165.4092 H       1  UNL1        0.1497
     29 C         142.4903  141.5201  167.0782 C.2     1  UNL1        0.0525
     30 C         142.7049  142.4853  168.2061 C.2     1  UNL1       -0.0153
     31 C         141.7754  142.4817  169.3834 C.3     1  UNL1        0.0726
     32 C         140.6313  141.5129  169.4327 C.2     1  UNL1        0.0933
     33 N         139.5589  141.2773  170.4548 N.am    1  UNL1       -0.1431
     34 C         138.6816  140.1665  169.9585 C.2     1  UNL1        0.4298
     35 O         137.4843  139.6051  170.6666 O.2     1  UNL1       -0.2238
     36 O         139.2117  139.7156  168.6297 O.3     1  UNL1       -0.4079
     37 C         140.4167  140.5478  168.3047 C.2     1  UNL1        0.1618
     38 C         141.3462  140.5513  167.1275 C.2     1  UNL1        0.0429
@<TRIPOS>BOND
     1    17    18    3
     2    18    11    1
     3    11    12   ar
     4    12    13   ar
     5    13    10    1
     6    10     9    1
     7     9     1    1
     8     1     2    2
     9     1     3   am
    10     3     4    1
    11     5     4    1
    12     5     6    1
    13     6    24    1
    14    24    25    1
    15    25    26   am
    16    26    27    2
    17    26    29    1
    18    29    30    2
    19    30    31    1
    20    31    32    1
    21    32    33    2
    22    33    34    1
    23    34    35    2
    24    34    36    1
    25    36    37    1
    26    37    38    2
    27     6     7    1
    28     7     8    1
    29    13    14   ar
    30    14    15   ar
    31    15    19    1
    32    19    20    1
    33    20    21    1
    34    20    22    1
    35    20    23    1
    36    15    16   ar
    37    16    11   ar
    38     8     3    1
    39     7     5    1
    40    38    29    1
    41    37    32    1
    42    25    28    1
@<TRIPOS>MOLECULE
*****
 38 42 0 0 0
SMALL
GASTEIGER

@<TRIPOS>ATOM
      1 C         143.1525  139.9899  158.3354 C.2     1  UNL1        0.4052
      2 O         144.0915  139.2002  157.4724 O.2     1  UNL1       -0.2262
      3 N         142.6630  139.4157  159.6318 N.am    1  UNL1       -0.2460
      4 C         141.7268  140.0840  160.5944 C.3     1  UNL1        0.0968
      5 C         141.5090  139.1537  161.7508 C.3     1  UNL1        0.0234
      6 C         141.4860  138.0348  162.7496 C.3     1  UNL1        0.0230
      7 C         142.3107  137.9104  161.5028 C.3     1  UNL1        0.0234
      8 C         143.0239  138.0723  160.1932 C.3     1  UNL1        0.0968
      9 O         142.7029  141.3537  157.9019 O.3     1  UNL1       -0.4295
     10 C         143.4531  142.5704  158.3568 C.3     1  UNL1        0.2368
     11 C         141.6442  144.6448  161.2159 C.ar    1  UNL1        0.0713
     12 C         141.9410  144.0379  159.8767 C.ar    1  UNL1        0.0098
     13 C         143.1563  143.1774  159.6960 C.ar    1  UNL1        0.0250
     14 C         144.0749  142.9240  160.8544 C.ar    1  UNL1        0.0365
     15 C         143.7781  143.5310  162.1936 C.ar    1  UNL1        0.1473
     16 C         142.5628  144.3914  162.3744 C.ar    1  UNL1        0.0474
     17 N         139.2136  146.3656  161.5775 N.1     1  UNL1       -0.1908
     18 C         140.4289  145.5052  161.3967 C.1     1  UNL1        0.1005
     19 O         144.6967  143.2776  163.3521 O.3     1  UNL1       -0.4044
     20 C         144.9119  141.8778  163.8463 C.3     1  UNL1        0.5753
     21 F         145.1271  140.4780  164.3406 F       1  UNL1       -0.1328
     22 F         146.3000  141.8905  163.2779 F       1  UNL1       -0.1328
     23 F         143.5238  141.8651  164.4147 F       1  UNL1       -0.1328
     24 C         140.9965  137.4606  164.0460 C.3     1  UNL1        0.0898
     25 N         141.2096  138.2116  165.3269 N.am    1  UNL1       -0.3009
     26 C         140.2898  139.3367  165.6985 C.2     1  UNL1        0.2456
     27 O         139.1568  139.7107  164.7893 O.2     1  UNL1       -0.2702
     28 H         141.9532  137.9662  165.9236 H       1  UNL1        0.1497
     29 C         140.5028  140.0877  166.9794 C.2     1  UNL1        0.0525
     30 C         139.5149  139.9545  168.1002 C.2     1  UNL1       -0.0153
     31 C         139.7279  140.7055  169.3810 C.3     1  UNL1        0.0726
     32 C         140.9290  141.5898  169.5410 C.2     1  UNL1        0.0933
     33 N         141.4001  142.4466  170.6786 N.am    1  UNL1       -0.1431
     34 C         142.6792  143.1093  170.2608 C.2     1  UNL1        0.4298
     35 O         143.4957  144.0535  171.0927 O.2     1  UNL1       -0.2238
     36 O         142.9986  142.6621  168.8651 O.3     1  UNL1       -0.4079
     37 C         141.9169  141.7230  168.4202 C.2     1  UNL1        0.1618
     38 C         141.7038  140.9720  167.1394 C.2     1  UNL1        0.0429
@<TRIPOS>BOND
     1    17    18    3
     2    18    11    1
     3    11    12   ar
     4    12    13   ar
     5    13    10    1
     6    10     9    1
     7     9     1    1
     8     1     2    2
     9     1     3   am
    10     3     4    1
    11     5     4    1
    12     5     6    1
    13     6    24    1
    14    24    25    1
    15    25    26   am
    16    26    27    2
    17    26    29    1
    18    29    30    2
    19    30    31    1
    20    31    32    1
    21    32    33    2
    22    33    34    1
    23    34    35    2
    24    34    36    1
    25    36    37    1
    26    37    38    2
    27     6     7    1
    28     7     8    1
    29    13    14   ar
    30    14    15   ar
    31    15    19    1
    32    19    20    1
    33    20    21    1
    34    20    22    1
    35    20    23    1
    36    15    16   ar
    37    16    11   ar
    38     8     3    1
    39     7     5    1
    40    38    29    1
    41    37    32    1
    42    25    28    1
@<TRIPOS>MOLECULE
*****
 38 42 0 0 0
SMALL
GASTEIGER

@<TRIPOS>ATOM
      1 C         139.7106  140.0573  168.8320 C.2     1  UNL1        0.4052
      2 O         138.6287  140.0527  169.8710 O.2     1  UNL1       -0.2262
      3 N         139.4422  139.4954  167.4673 N.am    1  UNL1       -0.2460
      4 C         140.4204  139.4318  166.3320 C.3     1  UNL1        0.0968
      5 C         139.7312  138.7956  165.1614 C.3     1  UNL1        0.0234
      6 C         138.7967  138.1441  164.1856 C.3     1  UNL1        0.0230
      7 C         138.3271  138.4659  165.5733 C.3     1  UNL1        0.0234
      8 C         138.1484  138.8984  166.9984 C.3     1  UNL1        0.0968
      9 O         141.0608  140.6237  169.1576 O.3     1  UNL1       -0.4295
     10 C         141.4171  142.0130  168.7182 C.3     1  UNL1        0.2368
     11 C         143.1074  142.4094  165.1494 C.ar    1  UNL1        0.0713
     12 C         142.9295  142.1065  166.6077 C.ar    1  UNL1        0.0098
     13 C         141.5950  142.3160  167.2599 C.ar    1  UNL1        0.0250
     14 C         140.4385  142.8284  166.4538 C.ar    1  UNL1        0.0365
     15 C         140.6164  143.1314  164.9956 C.ar    1  UNL1        0.1473
     16 C         141.9508  142.9219  164.3434 C.ar    1  UNL1        0.0474
     17 N         145.7762  141.9905  163.8450 N.1     1  UNL1       -0.1908
     18 C         144.4418  142.2000  164.4972 C.1     1  UNL1        0.1005
     19 O         139.4597  143.6438  164.1895 O.3     1  UNL1       -0.4044
     20 C         138.2632  144.2266  164.8813 C.3     1  UNL1        0.5753
     21 F         137.0666  144.8094  165.5731 F       1  UNL1       -0.1328
     22 F         137.4492  143.0325  164.4794 F       1  UNL1       -0.1328
     23 F         139.0771  145.4207  165.2832 F       1  UNL1       -0.1328
     24 C         138.5283  137.5823  162.8210 C.3     1  UNL1        0.0898
     25 N         139.0785  138.2684  161.6058 N.am    1  UNL1       -0.3009
     26 C         140.5280  138.1173  161.2508 C.2     1  UNL1        0.2456
     27 O         141.4274  137.2799  162.1110 O.2     1  UNL1       -0.2702
     28 H         138.4882  138.8180  161.0412 H       1  UNL1        0.1497
     29 C         141.0781  138.8034  160.0356 C.2     1  UNL1        0.0525
     30 C         140.1460  139.3273  158.9837 C.2     1  UNL1       -0.0153
     31 C         140.6962  140.0135  157.7686 C.3     1  UNL1        0.0726
     32 C         142.1784  140.1757  157.6055 C.2     1  UNL1        0.0933
     33 N         143.0064  140.8035  156.5235 N.am    1  UNL1       -0.1431
     34 C         144.4501  140.6676  156.9069 C.2     1  UNL1        0.4298
     35 O         145.6236  141.1574  156.1112 O.2     1  UNL1       -0.2238
     36 O         144.5145  139.9558  158.2257 O.3     1  UNL1       -0.4079
     37 C         143.1105  139.6518  158.6574 C.2     1  UNL1        0.1618
     38 C         142.5604  138.9657  159.8725 C.2     1  UNL1        0.0429
@<TRIPOS>BOND
     1    17    18    3
     2    18    11    1
     3    11    12   ar
     4    12    13   ar
     5    13    10    1
     6    10     9    1
     7     9     1    1
     8     1     2    2
     9     1     3   am
    10     3     4    1
    11     5     4    1
    12     5     6    1
    13     6    24    1
    14    24    25    1
    15    25    26   am
    16    26    27    2
    17    26    29    1
    18    29    30    2
    19    30    31    1
    20    31    32    1
    21    32    33    2
    22    33    34    1
    23    34    35    2
    24    34    36    1
    25    36    37    1
    26    37    38    2
    27     6     7    1
    28     7     8    1
    29    13    14   ar
    30    14    15   ar
    31    15    19    1
    32    19    20    1
    33    20    21    1
    34    20    22    1
    35    20    23    1
    36    15    16   ar
    37    16    11   ar
    38     8     3    1
    39     7     5    1
    40    38    29    1
    41    37    32    1
    42    25    28    1
@<TRIPOS>MOLECULE
*****
 38 42 0 0 0
SMALL
GASTEIGER

@<TRIPOS>ATOM
      1 C         141.7784  139.2704  158.0522 C.2     1  UNL1        0.4052
      2 O         142.0314  138.0938  157.1568 O.2     1  UNL1       -0.2262
      3 N         142.4274  139.3383  159.4028 N.am    1  UNL1       -0.2460
      4 C         142.2694  140.4456  160.4023 C.3     1  UNL1        0.0968
      5 C         143.0927  140.1024  161.6083 C.3     1  UNL1        0.0234
      6 C         143.9881  139.5015  162.6510 C.3     1  UNL1        0.0230
      7 C         143.7595  138.7830  161.3542 C.3     1  UNL1        0.0234
      8 C         143.3483  138.3107  159.9912 C.3     1  UNL1        0.0968
      9 O         140.8765  140.3791  157.5969 O.3     1  UNL1       -0.4295
     10 C         139.4209  140.3583  157.9588 C.3     1  UNL1        0.2368
     11 C         138.2748  141.7791  161.4827 C.ar    1  UNL1        0.0713
     12 C         138.6903  141.7278  160.0423 C.ar    1  UNL1        0.0098
     13 C         139.0054  140.4097  159.3992 C.ar    1  UNL1        0.0250
     14 C         138.9049  139.1431  160.1964 C.ar    1  UNL1        0.0365
     15 C         138.4894  139.1945  161.6368 C.ar    1  UNL1        0.1473
     16 C         138.1744  140.5124  162.2800 C.ar    1  UNL1        0.0474
     17 N         137.6447  144.4150  162.7690 N.1     1  UNL1       -0.1908
     18 C         137.9598  143.0971  162.1259 C.1     1  UNL1        0.1005
     19 O         138.3890  137.9278  162.4341 O.3     1  UNL1       -0.4044
     20 C         139.4119  137.6216  163.4875 C.3     1  UNL1        0.5753
     21 F         140.4348  137.3154  164.5410 F       1  UNL1       -0.1328
     22 F         140.4254  137.3338  162.4198 F       1  UNL1       -0.1328
     23 F         138.3985  137.9094  164.5553 F       1  UNL1       -0.1328
     24 C         144.6371  139.5693  164.0016 C.3     1  UNL1        0.0898
     25 N         143.7911  139.6786  165.2355 N.am    1  UNL1       -0.3009
     26 C         143.1248  140.9787  165.5753 C.2     1  UNL1        0.2456
     27 O         143.3042  142.1697  164.6813 O.2     1  UNL1       -0.2702
     28 H         143.6733  138.8969  165.8223 H       1  UNL1        0.1497
     29 C         142.2788  141.0879  166.8093 C.2     1  UNL1        0.0525
     30 C         142.6280  142.0873  167.8719 C.2     1  UNL1       -0.0153
     31 C         141.7821  142.1965  169.1058 C.3     1  UNL1        0.0726
     32 C         140.5870  141.3063  169.2770 C.2     1  UNL1        0.0933
     33 N         139.5742  141.1863  170.3770 N.am    1  UNL1       -0.1431
     34 C         138.5991  140.1127  169.9942 C.2     1  UNL1        0.4298
     35 O         137.4207  139.6618  170.8054 O.2     1  UNL1       -0.2238
     36 O         139.0093  139.5692  168.6576 O.3     1  UNL1       -0.4079
     37 C         140.2378  140.3069  168.2144 C.2     1  UNL1        0.1618
     38 C         141.0838  140.1977  166.9805 C.2     1  UNL1        0.0429
@<TRIPOS>BOND
     1    17    18    3
     2    18    11    1
     3    11    12   ar
     4    12    13   ar
     5    13    10    1
     6    10     9    1
     7     9     1    1
     8     1     2    2
     9     1     3   am
    10     3     4    1
    11     5     4    1
    12     5     6    1
    13     6    24    1
    14    24    25    1
    15    25    26   am
    16    26    27    2
    17    26    29    1
    18    29    30    2
    19    30    31    1
    20    31    32    1
    21    32    33    2
    22    33    34    1
    23    34    35    2
    24    34    36    1
    25    36    37    1
    26    37    38    2
    27     6     7    1
    28     7     8    1
    29    13    14   ar
    30    14    15   ar
    31    15    19    1
    32    19    20    1
    33    20    21    1
    34    20    22    1
    35    20    23    1
    36    15    16   ar
    37    16    11   ar
    38     8     3    1
    39     7     5    1
    40    38    29    1
    41    37    32    1
    42    25    28    1
@<TRIPOS>MOLECULE
*****
 38 42 0 0 0
SMALL
GASTEIGER

@<TRIPOS>ATOM
      1 C         141.9865  139.1265  158.4594 C.2     1  UNL1        0.4052
      2 O         143.3335  138.6356  158.0180 O.2     1  UNL1       -0.2262
      3 N         141.4761  138.7869  159.8284 N.am    1  UNL1       -0.2460
      4 C         140.1563  139.2045  160.4060 C.3     1  UNL1        0.0968
      5 C         140.0605  138.6458  161.7948 C.3     1  UNL1        0.0234
      6 C         140.2488  137.9702  163.1207 C.3     1  UNL1        0.0230
      7 C         141.3211  137.8829  162.0755 C.3     1  UNL1        0.0234
      8 C         142.1960  137.9701  160.8603 C.3     1  UNL1        0.0968
      9 O         141.1499  139.9569  157.5318 O.3     1  UNL1       -0.4295
     10 C         141.2358  141.4537  157.5816 C.3     1  UNL1        0.2368
     11 C         141.9754  143.4005  160.9599 C.ar    1  UNL1        0.0713
     12 C         142.1931  142.6797  159.6627 C.ar    1  UNL1        0.0098
     13 C         141.0181  142.1746  158.8789 C.ar    1  UNL1        0.0250
     14 C         139.6254  142.3905  159.3925 C.ar    1  UNL1        0.0365
     15 C         139.4077  143.1114  160.6897 C.ar    1  UNL1        0.1473
     16 C         140.5826  143.6164  161.4735 C.ar    1  UNL1        0.0474
     17 N         144.3254  144.4106  162.5274 N.1     1  UNL1       -0.1908
     18 C         143.1504  143.9056  161.7437 C.1     1  UNL1        0.1005
     19 O         138.0149  143.3272  161.2033 O.3     1  UNL1       -0.4044
     20 C         137.6748  142.9727  162.6205 C.3     1  UNL1        0.5753
     21 F         137.3346  142.6182  164.0378 F       1  UNL1       -0.1328
     22 F         137.3566  144.4109  162.9039 F       1  UNL1       -0.1328
     23 F         137.9929  141.5345  162.3372 F       1  UNL1       -0.1328
     24 C         139.7384  137.6307  164.4897 C.3     1  UNL1        0.0898
     25 N         140.1882  138.4292  165.6773 N.am    1  UNL1       -0.3009
     26 C         139.1868  139.1990  166.4863 C.2     1  UNL1        0.2456
     27 O         137.7356  139.1703  166.1079 O.2     1  UNL1       -0.2702
     28 H         141.1406  138.4480  165.9257 H       1  UNL1        0.1497
     29 C         139.6365  139.9975  167.6738 C.2     1  UNL1        0.0525
     30 C         138.8402  139.9651  168.9446 C.2     1  UNL1       -0.0153
     31 C         139.2900  140.7636  170.1320 C.3     1  UNL1        0.0726
     32 C         140.5361  141.5944  170.0487 C.2     1  UNL1        0.0933
     33 N         141.2212  142.4791  171.0478 N.am    1  UNL1       -0.1431
     34 C         142.4409  143.0583  170.3944 C.2     1  UNL1        0.4298
     35 O         143.4201  143.9990  171.0319 O.2     1  UNL1       -0.2238
     36 O         142.5096  142.5315  168.9916 O.3     1  UNL1       -0.4079
     37 C         141.3324  141.6268  168.7780 C.2     1  UNL1        0.1618
     38 C         140.8826  140.8284  167.5905 C.2     1  UNL1        0.0429
@<TRIPOS>BOND
     1    17    18    3
     2    18    11    1
     3    11    12   ar
     4    12    13   ar
     5    13    10    1
     6    10     9    1
     7     9     1    1
     8     1     2    2
     9     1     3   am
    10     3     4    1
    11     5     4    1
    12     5     6    1
    13     6    24    1
    14    24    25    1
    15    25    26   am
    16    26    27    2
    17    26    29    1
    18    29    30    2
    19    30    31    1
    20    31    32    1
    21    32    33    2
    22    33    34    1
    23    34    35    2
    24    34    36    1
    25    36    37    1
    26    37    38    2
    27     6     7    1
    28     7     8    1
    29    13    14   ar
    30    14    15   ar
    31    15    19    1
    32    19    20    1
    33    20    21    1
    34    20    22    1
    35    20    23    1
    36    15    16   ar
    37    16    11   ar
    38     8     3    1
    39     7     5    1
    40    38    29    1
    41    37    32    1
    42    25    28    1
@<TRIPOS>MOLECULE
*****
 38 42 0 0 0
SMALL
GASTEIGER

@<TRIPOS>ATOM
      1 C         139.7478  139.9417  168.5390 C.2     1  UNL1        0.4052
      2 O         138.6345  139.9325  169.5444 O.2     1  UNL1       -0.2262
      3 N         139.4874  139.5055  167.1277 N.am    1  UNL1       -0.2460
      4 C         140.4959  139.4614  166.0182 C.3     1  UNL1        0.0968
      5 C         139.8045  138.9655  164.7828 C.3     1  UNL1        0.0234
      6 C         138.8612  138.4566  163.7335 C.3     1  UNL1        0.0230
      7 C         138.3688  138.7032  165.1288 C.3     1  UNL1        0.0234
      8 C         138.1728  139.0369  166.5780 C.3     1  UNL1        0.0968
      9 O         141.1214  140.3870  168.9451 O.3     1  UNL1       -0.4295
     10 C         141.5347  141.8158  168.7505 C.3     1  UNL1        0.2368
     11 C         140.9040  143.4545  165.1915 C.ar    1  UNL1        0.0713
     12 C         140.6545  142.9275  166.5735 C.ar    1  UNL1        0.0098
     13 C         141.7842  142.3428  167.3685 C.ar    1  UNL1        0.0250
     14 C         143.1633  142.2850  166.7814 C.ar    1  UNL1        0.0365
     15 C         143.4128  142.8120  165.3994 C.ar    1  UNL1        0.1473
     16 C         142.2832  143.3967  164.6044 C.ar    1  UNL1        0.0474
     17 N         138.6447  144.6239  163.6015 N.1     1  UNL1       -0.1908
     18 C         139.7744  144.0392  164.3965 C.1     1  UNL1        0.1005
     19 O         144.7920  142.7543  164.8123 O.3     1  UNL1       -0.4044
     20 C         145.0614  141.8937  163.6136 C.3     1  UNL1        0.5753
     21 F         145.3308  141.0331  162.4149 F       1  UNL1       -0.1328
     22 F         145.1073  140.6807  164.4948 F       1  UNL1       -0.1328
     23 F         145.0155  143.1067  162.7324 F       1  UNL1       -0.1328
     24 C         138.6008  138.0205  162.3222 C.3     1  UNL1        0.0898
     25 N         139.4767  138.5167  161.2101 N.am    1  UNL1       -0.3009
     26 C         140.9217  138.1177  161.1584 C.2     1  UNL1        0.2456
     27 O         141.4909  137.2223  162.2188 O.2     1  UNL1       -0.2702
     28 H         139.1031  139.1044  160.5141 H       1  UNL1        0.1497
     29 C         141.7976  138.6139  160.0464 C.2     1  UNL1        0.0525
     30 C         141.8489  137.8717  158.7439 C.2     1  UNL1       -0.0153
     31 C         142.7247  138.3679  157.6319 C.3     1  UNL1        0.0726
     32 C         143.5493  139.6064  157.8224 C.2     1  UNL1        0.0933
     33 N         144.4988  140.3296  156.9138 N.am    1  UNL1       -0.1431
     34 C         145.0344  141.5188  157.6548 C.2     1  UNL1        0.4298
     35 O         146.0161  142.5204  157.1227 O.2     1  UNL1       -0.2238
     36 O         144.4158  141.5305  159.0213 O.3     1  UNL1       -0.4079
     37 C         143.4980  140.3487  159.1248 C.2     1  UNL1        0.1618
     38 C         142.6221  139.8524  160.2368 C.2     1  UNL1        0.0429
@<TRIPOS>BOND
     1    17    18    3
     2    18    11    1
     3    11    12   ar
     4    12    13   ar
     5    13    10    1
     6    10     9    1
     7     9     1    1
     8     1     2    2
     9     1     3   am
    10     3     4    1
    11     5     4    1
    12     5     6    1
    13     6    24    1
    14    24    25    1
    15    25    26   am
    16    26    27    2
    17    26    29    1
    18    29    30    2
    19    30    31    1
    20    31    32    1
    21    32    33    2
    22    33    34    1
    23    34    35    2
    24    34    36    1
    25    36    37    1
    26    37    38    2
    27     6     7    1
    28     7     8    1
    29    13    14   ar
    30    14    15   ar
    31    15    19    1
    32    19    20    1
    33    20    21    1
    34    20    22    1
    35    20    23    1
    36    15    16   ar
    37    16    11   ar
    38     8     3    1
    39     7     5    1
    40    38    29    1
    41    37    32    1
    42    25    28    1
@<TRIPOS>MOLECULE
*****
 38 42 0 0 0
SMALL
GASTEIGER

@<TRIPOS>ATOM
      1 C         144.8590  140.6689  163.6472 C.2     1  UNL1        0.4052
      2 O         145.1142  139.6658  164.7330 O.2     1  UNL1       -0.2262
      3 N         144.3731  140.2124  162.3035 N.am    1  UNL1       -0.2460
      4 C         144.0762  141.0943  161.1271 C.3     1  UNL1        0.0968
      5 C         143.6184  140.2208  159.9968 C.3     1  UNL1        0.0234
      6 C         143.2046  139.1146  159.0721 C.3     1  UNL1        0.0230
      7 C         143.6324  138.7991  160.4748 C.3     1  UNL1        0.0234
      8 C         144.0989  138.7939  161.9004 C.3     1  UNL1        0.0968
      9 O         145.0899  142.1284  163.9052 O.3     1  UNL1       -0.4295
     10 C         144.5026  142.7767  165.1238 C.3     1  UNL1        0.2368
     11 C         141.2820  141.4499  167.0257 C.ar    1  UNL1        0.0713
     12 C         142.7191  141.6885  166.6681 C.ar    1  UNL1        0.0098
     13 C         143.0656  142.5381  165.4814 C.ar    1  UNL1        0.0250
     14 C         141.9750  143.1492  164.6524 C.ar    1  UNL1        0.0365
     15 C         140.5379  142.9106  165.0100 C.ar    1  UNL1        0.1473
     16 C         140.1914  142.0610  166.1966 C.ar    1  UNL1        0.0474
     17 N         140.5889  139.7507  169.3989 N.1     1  UNL1       -0.1908
     18 C         140.9354  140.6003  168.2123 C.1     1  UNL1        0.1005
     19 O         139.4473  143.5217  164.1809 O.3     1  UNL1       -0.4044
     20 C         138.2510  144.1329  164.8482 C.3     1  UNL1        0.5753
     21 F         137.0547  144.7441  165.5154 F       1  UNL1       -0.1328
     22 F         139.0899  145.2967  165.2862 F       1  UNL1       -0.1328
     23 F         137.4121  142.9692  164.4101 F       1  UNL1       -0.1328
     24 C         142.7187  138.6582  157.7285 C.3     1  UNL1        0.0898
     25 N         142.3869  137.2129  157.5022 N.am    1  UNL1       -0.3009
     26 C         143.2239  136.3883  156.5697 C.2     1  UNL1        0.2456
     27 O         144.3927  137.0090  155.8635 O.2     1  UNL1       -0.2702
     28 H         141.6198  136.8055  157.9656 H       1  UNL1        0.1497
     29 C         142.8921  134.9430  156.3434 C.2     1  UNL1        0.0525
     30 C         141.7929  134.5654  155.3952 C.2     1  UNL1       -0.0153
     31 C         141.4611  133.1202  155.1690 C.3     1  UNL1        0.0726
     32 C         142.2286  132.0526  155.8909 C.2     1  UNL1        0.0933
     33 N         142.1281  130.5560  155.8700 N.am    1  UNL1       -0.1431
     34 C         143.1653  130.0088  156.8053 C.2     1  UNL1        0.4298
     35 O         143.4169  128.5580  157.0915 O.2     1  UNL1       -0.2238
     36 O         143.9067  131.1671  157.4042 O.3     1  UNL1       -0.4079
     37 C         143.3278  132.4302  156.8391 C.2     1  UNL1        0.1618
     38 C         143.6596  133.8754  157.0653 C.2     1  UNL1        0.0429
@<TRIPOS>BOND
     1    17    18    3
     2    18    11    1
     3    11    12   ar
     4    12    13   ar
     5    13    10    1
     6    10     9    1
     7     9     1    1
     8     1     2    2
     9     1     3   am
    10     3     4    1
    11     5     4    1
    12     5     6    1
    13     6    24    1
    14    24    25    1
    15    25    26   am
    16    26    27    2
    17    26    29    1
    18    29    30    2
    19    30    31    1
    20    31    32    1
    21    32    33    2
    22    33    34    1
    23    34    35    2
    24    34    36    1
    25    36    37    1
    26    37    38    2
    27     6     7    1
    28     7     8    1
    29    13    14   ar
    30    14    15   ar
    31    15    19    1
    32    19    20    1
    33    20    21    1
    34    20    22    1
    35    20    23    1
    36    15    16   ar
    37    16    11   ar
    38     8     3    1
    39     7     5    1
    40    38    29    1
    41    37    32    1
    42    25    28    1
@<TRIPOS>MOLECULE
*****
 38 42 0 0 0
SMALL
GASTEIGER

@<TRIPOS>ATOM
      1 C         144.8886  140.8268  163.3080 C.2     1  UNL1        0.4052
      2 O         145.1562  139.8719  164.4335 O.2     1  UNL1       -0.2262
      3 N         144.3705  140.3144  161.9969 N.am    1  UNL1       -0.2460
      4 C         144.0579  141.1446  160.7873 C.3     1  UNL1        0.0968
      5 C         143.5682  140.2252  159.7080 C.3     1  UNL1        0.0234
      6 C         143.1244  139.0823  158.8438 C.3     1  UNL1        0.0230
      7 C         143.5781  138.8268  160.2506 C.3     1  UNL1        0.0234
      8 C         144.0739  138.8820  161.6652 C.3     1  UNL1        0.0968
      9 O         145.1391  142.2940  163.4937 O.3     1  UNL1       -0.4295
     10 C         144.7155  142.9725  164.7627 C.3     1  UNL1        0.2368
     11 C         140.7834  143.4969  164.8797 C.ar    1  UNL1        0.0713
     12 C         142.2112  143.5771  164.4268 C.ar    1  UNL1        0.0098
     13 C         143.2878  142.8923  165.2156 C.ar    1  UNL1        0.0250
     14 C         142.9366  142.1273  166.4571 C.ar    1  UNL1        0.0365
     15 C         141.5088  142.0471  166.9100 C.ar    1  UNL1        0.1473
     16 C         140.4323  142.7318  166.1213 C.ar    1  UNL1        0.0474
     17 N         138.6303  144.8664  163.3024 N.1     1  UNL1       -0.1908
     18 C         139.7069  144.1816  164.0910 C.1     1  UNL1        0.1005
     19 O         141.1577  141.2820  168.1516 O.3     1  UNL1       -0.4044
     20 C         139.9355  140.4127  168.1763 C.3     1  UNL1        0.5753
     21 F         138.7134  139.5434  168.2011 F       1  UNL1       -0.1328
     22 F         140.4911  139.5994  167.0451 F       1  UNL1       -0.1328
     23 F         139.3799  141.2261  169.3076 F       1  UNL1       -0.1328
     24 C         142.6063  138.5699  157.5327 C.3     1  UNL1        0.0898
     25 N         142.3212  137.1075  157.3588 N.am    1  UNL1       -0.3009
     26 C         143.2125  136.2675  156.4928 C.2     1  UNL1        0.2456
     27 O         144.3889  136.8898  155.8008 O.2     1  UNL1       -0.2702
     28 H         141.5491  136.6991  157.8130 H       1  UNL1        0.1497
     29 C         142.9275  134.8051  156.3189 C.2     1  UNL1        0.0525
     30 C         141.7418  134.3627  155.5136 C.2     1  UNL1       -0.0153
     31 C         141.4568  132.9004  155.3397 C.3     1  UNL1        0.0726
     32 C         142.3575  131.8804  155.9710 C.2     1  UNL1        0.0933
     33 N         142.3291  130.3806  155.9733 N.am    1  UNL1       -0.1431
     34 C         143.4972  129.8962  156.7800 C.2     1  UNL1        0.4298
     35 O         143.8527  128.4630  157.0441 O.2     1  UNL1       -0.2238
     36 O         144.2475  131.0965  157.2763 O.3     1  UNL1       -0.4079
     37 C         143.5431  132.3228  156.7763 C.2     1  UNL1        0.1618
     38 C         143.8281  133.7852  156.9502 C.2     1  UNL1        0.0429
@<TRIPOS>BOND
     1    17    18    3
     2    18    11    1
     3    11    12   ar
     4    12    13   ar
     5    13    10    1
     6    10     9    1
     7     9     1    1
     8     1     2    2
     9     1     3   am
    10     3     4    1
    11     5     4    1
    12     5     6    1
    13     6    24    1
    14    24    25    1
    15    25    26   am
    16    26    27    2
    17    26    29    1
    18    29    30    2
    19    30    31    1
    20    31    32    1
    21    32    33    2
    22    33    34    1
    23    34    35    2
    24    34    36    1
    25    36    37    1
    26    37    38    2
    27     6     7    1
    28     7     8    1
    29    13    14   ar
    30    14    15   ar
    31    15    19    1
    32    19    20    1
    33    20    21    1
    34    20    22    1
    35    20    23    1
    36    15    16   ar
    37    16    11   ar
    38     8     3    1
    39     7     5    1
    40    38    29    1
    41    37    32    1
    42    25    28    1
@<TRIPOS>MOLECULE
*****
 38 42 0 0 0
SMALL
GASTEIGER

@<TRIPOS>ATOM
      1 C         139.4594  144.2252  163.2743 C.2     1  UNL1        0.4052
      2 O         139.5576  145.3625  164.2475 O.2     1  UNL1       -0.2262
      3 N         139.7326  144.4586  161.8180 N.am    1  UNL1       -0.2460
      4 C         139.6739  143.4244  160.7332 C.3     1  UNL1        0.0968
      5 C         140.0175  144.0939  159.4355 C.3     1  UNL1        0.0234
      6 C         140.3897  145.0199  158.3158 C.3     1  UNL1        0.0230
      7 C         140.2887  145.5417  159.7184 C.3     1  UNL1        0.0234
      8 C         140.1126  145.7672  161.1909 C.3     1  UNL1        0.0968
      9 O         139.0880  142.8546  163.7575 O.3     1  UNL1       -0.4295
     10 C         140.1312  141.9664  164.3681 C.3     1  UNL1        0.2368
     11 C         138.6735  139.5993  167.2004 C.ar    1  UNL1        0.0713
     12 C         138.9111  140.2206  165.8560 C.ar    1  UNL1        0.0098
     13 C         139.8936  141.3450  165.7125 C.ar    1  UNL1        0.0250
     14 C         140.6385  141.8479  166.9134 C.ar    1  UNL1        0.0365
     15 C         140.4010  141.2265  168.2578 C.ar    1  UNL1        0.1473
     16 C         139.4185  140.1022  168.4013 C.ar    1  UNL1        0.0474
     17 N         136.7085  137.3507  167.4875 N.1     1  UNL1       -0.1908
     18 C         137.6910  138.4750  167.3439 C.1     1  UNL1        0.1005
     19 O         141.1459  141.7294  169.4587 O.3     1  UNL1       -0.4044
     20 C         141.0852  143.1829  169.8245 C.3     1  UNL1        0.5753
     21 F         141.0245  144.6363  170.1902 F       1  UNL1       -0.1328
     22 F         142.5567  143.3103  169.5625 F       1  UNL1       -0.1328
     23 F         139.6138  143.0555  170.0864 F       1  UNL1       -0.1328
     24 C         140.6630  145.2533  156.8595 C.3     1  UNL1        0.0898
     25 N         140.6126  146.6443  156.3004 N.am    1  UNL1       -0.3009
     26 C         139.4402  147.0773  155.4710 C.2     1  UNL1        0.2456
     27 O         138.3181  146.1192  155.2005 O.2     1  UNL1       -0.2702
     28 H         141.3490  147.2732  156.4779 H       1  UNL1        0.1497
     29 C         139.3898  148.4683  154.9119 C.2     1  UNL1        0.0525
     30 C         139.9310  148.7456  153.5408 C.2     1  UNL1       -0.0153
     31 C         139.8806  150.1366  152.9818 C.3     1  UNL1        0.0726
     32 C         139.2889  151.2503  153.7939 C.2     1  UNL1        0.0933
     33 N         139.1036  152.7114  153.5092 N.am    1  UNL1       -0.1431
     34 C         138.4479  153.3371  154.7044 C.2     1  UNL1        0.4298
     35 O         138.0771  154.7832  154.8506 O.2     1  UNL1       -0.2238
     36 O         138.2279  152.2627  155.7278 O.3     1  UNL1       -0.4079
     37 C         138.7477  150.9730  155.1651 C.2     1  UNL1        0.1618
     38 C         138.7981  149.5820  155.7241 C.2     1  UNL1        0.0429
@<TRIPOS>BOND
     1    17    18    3
     2    18    11    1
     3    11    12   ar
     4    12    13   ar
     5    13    10    1
     6    10     9    1
     7     9     1    1
     8     1     2    2
     9     1     3   am
    10     3     4    1
    11     5     4    1
    12     5     6    1
    13     6    24    1
    14    24    25    1
    15    25    26   am
    16    26    27    2
    17    26    29    1
    18    29    30    2
    19    30    31    1
    20    31    32    1
    21    32    33    2
    22    33    34    1
    23    34    35    2
    24    34    36    1
    25    36    37    1
    26    37    38    2
    27     6     7    1
    28     7     8    1
    29    13    14   ar
    30    14    15   ar
    31    15    19    1
    32    19    20    1
    33    20    21    1
    34    20    22    1
    35    20    23    1
    36    15    16   ar
    37    16    11   ar
    38     8     3    1
    39     7     5    1
    40    38    29    1
    41    37    32    1
    42    25    28    1
