@<TRIPOS>MOLECULE
*****
 20 21 0 0 0
SMALL
GASTEIGER

@<TRIPOS>ATOM
      1 C         137.2522  137.8261  167.1987 C.3     1  UNL1        0.0310
      2 C         138.1235  139.0068  166.8873 C.ar    1  UNL1       -0.0219
      3 C         138.1585  139.5670  165.4963 C.ar    1  UNL1       -0.0011
      4 C         139.0297  140.7476  165.1850 C.ar    1  UNL1        0.0369
      5 C         139.8660  141.3681  166.2646 C.ar    1  UNL1        0.1425
      6 C         139.8310  140.8079  167.6556 C.ar    1  UNL1        0.0281
      7 C         138.9598  139.6272  167.9669 C.ar    1  UNL1       -0.0041
      8 O         140.7373  142.5487  165.9532 O.3     1  UNL1       -0.4537
      9 C         142.0860  142.3420  165.3302 C.ar    1  UNL1        0.1462
     10 C         142.8250  143.5054  164.7383 C.ar    1  UNL1        0.0384
     11 C         144.1738  143.2986  164.1153 C.ar    1  UNL1        0.0154
     12 C         144.7835  141.9285  164.0841 C.ar    1  UNL1        0.0684
     13 CL        146.1323  141.7217  163.4611 Cl      1  UNL1       -0.0814
     14 C         144.0444  140.7651  164.6760 C.ar    1  UNL1        0.0712
     15 CL        144.6542  139.3949  164.6449 Cl      1  UNL1       -0.0813
     16 C         142.6957  140.9718  165.2990 C.ar    1  UNL1        0.0497
     17 C         140.6673  141.4283  168.7353 C.3     1  UNL1        0.1023
     18 N         142.1271  141.0985  168.8361 N.3     1  UNL1       -0.2664
     19 C         143.1405  142.2006  168.9276 C.3     1  UNL1        0.0899
     20 C         142.5735  139.6665  168.8455 C.3     1  UNL1        0.0899
@<TRIPOS>BOND
     1     1     2    1
     2     2     3   ar
     3     3     4   ar
     4     4     5   ar
     5     5     8    1
     6     8     9    1
     7     9    10   ar
     8    10    11   ar
     9    11    12   ar
    10    12    13    1
    11    12    14   ar
    12    14    15    1
    13    14    16   ar
    14     5     6   ar
    15     6    17    1
    16    17    18    1
    17    18    19    1
    18    18    20    1
    19     6     7   ar
    20     7     2   ar
    21    16     9   ar
@<TRIPOS>MOLECULE
*****
 20 21 0 0 0
SMALL
GASTEIGER

@<TRIPOS>ATOM
      1 C         143.9025  137.9613  166.5953 C.3     1  UNL1        0.0310
      2 C         142.7417  138.8966  166.4288 C.ar    1  UNL1       -0.0219
      3 C         141.8338  138.7616  165.2424 C.ar    1  UNL1       -0.0011
      4 C         140.6730  139.6969  165.0759 C.ar    1  UNL1        0.0369
      5 C         140.4200  140.7673  166.0959 C.ar    1  UNL1        0.1425
      6 C         141.3279  140.9023  167.2822 C.ar    1  UNL1        0.0281
      7 C         142.4887  139.9670  167.4487 C.ar    1  UNL1       -0.0041
      8 O         139.2592  141.7026  165.9294 O.3     1  UNL1       -0.4537
      9 C         139.3431  142.8351  164.9494 C.ar    1  UNL1        0.1462
     10 C         138.1422  143.2109  164.1329 C.ar    1  UNL1        0.0384
     11 C         138.2261  144.3434  163.1529 C.ar    1  UNL1        0.0154
     12 C         139.5109  145.1001  162.9894 C.ar    1  UNL1        0.0684
     13 CL        139.5948  146.2326  162.0094 Cl      1  UNL1       -0.0814
     14 C         140.7118  144.7243  163.8059 C.ar    1  UNL1        0.0712
     15 CL        141.9966  145.4810  163.6423 Cl      1  UNL1       -0.0813
     16 C         140.6279  143.5918  164.7858 C.ar    1  UNL1        0.0497
     17 C         141.0749  141.9727  168.3022 C.3     1  UNL1        0.1023
     18 N         140.1161  141.7239  169.4286 N.3     1  UNL1       -0.2664
     19 C         139.3967  140.4112  169.5250 C.3     1  UNL1        0.0899
     20 C         139.8767  142.7877  170.4587 C.3     1  UNL1        0.0899
@<TRIPOS>BOND
     1     1     2    1
     2     2     3   ar
     3     3     4   ar
     4     4     5   ar
     5     5     8    1
     6     8     9    1
     7     9    10   ar
     8    10    11   ar
     9    11    12   ar
    10    12    13    1
    11    12    14   ar
    12    14    15    1
    13    14    16   ar
    14     5     6   ar
    15     6    17    1
    16    17    18    1
    17    18    19    1
    18    18    20    1
    19     6     7   ar
    20     7     2   ar
    21    16     9   ar
@<TRIPOS>MOLECULE
*****
 20 21 0 0 0
SMALL
GASTEIGER

@<TRIPOS>ATOM
      1 C         138.6493  140.2569  170.2662 C.3     1  UNL1        0.0310
      2 C         139.4851  140.7660  169.1294 C.ar    1  UNL1       -0.0219
      3 C         140.2226  142.0652  169.2638 C.ar    1  UNL1       -0.0011
      4 C         141.0584  142.5743  168.1271 C.ar    1  UNL1        0.0369
      5 C         141.1567  141.7842  166.8558 C.ar    1  UNL1        0.1425
      6 C         140.4192  140.4850  166.7214 C.ar    1  UNL1        0.0281
      7 C         139.5834  139.9759  167.8582 C.ar    1  UNL1       -0.0041
      8 O         141.9925  142.2933  165.7191 O.3     1  UNL1       -0.4537
      9 C         141.4242  143.2988  164.7619 C.ar    1  UNL1        0.1462
     10 C         142.3312  144.2762  164.0749 C.ar    1  UNL1        0.0384
     11 C         141.7629  145.2817  163.1177 C.ar    1  UNL1        0.0154
     12 C         140.2877  145.3097  162.8477 C.ar    1  UNL1        0.0684
     13 CL        139.7194  146.3152  161.8905 Cl      1  UNL1       -0.0814
     14 C         139.3808  144.3323  163.5347 C.ar    1  UNL1        0.0712
     15 CL        137.9055  144.3604  163.2647 Cl      1  UNL1       -0.0813
     16 C         139.9490  143.3269  164.4919 C.ar    1  UNL1        0.0497
     17 C         140.5174  139.6948  165.4501 C.3     1  UNL1        0.1023
     18 N         139.2811  139.1135  164.8309 N.3     1  UNL1       -0.2664
     19 C         138.9984  137.6457  164.9564 C.3     1  UNL1        0.0899
     20 C         138.3273  140.0000  164.0862 C.3     1  UNL1        0.0899
@<TRIPOS>BOND
     1     1     2    1
     2     2     3   ar
     3     3     4   ar
     4     4     5   ar
     5     5     8    1
     6     8     9    1
     7     9    10   ar
     8    10    11   ar
     9    11    12   ar
    10    12    13    1
    11    12    14   ar
    12    14    15    1
    13    14    16   ar
    14     5     6   ar
    15     6    17    1
    16    17    18    1
    17    18    19    1
    18    18    20    1
    19     6     7   ar
    20     7     2   ar
    21    16     9   ar
@<TRIPOS>MOLECULE
*****
 20 21 0 0 0
SMALL
GASTEIGER

@<TRIPOS>ATOM
      1 C         137.1830  137.6413  167.1918 C.3     1  UNL1        0.0310
      2 C         138.1047  138.8056  166.9799 C.ar    1  UNL1       -0.0219
      3 C         138.3710  139.3083  165.5920 C.ar    1  UNL1       -0.0011
      4 C         139.2927  140.4726  165.3801 C.ar    1  UNL1        0.0369
      5 C         139.9481  141.1341  166.5560 C.ar    1  UNL1        0.1425
      6 C         139.6817  140.6314  167.9439 C.ar    1  UNL1        0.0281
      7 C         138.7600  139.4671  168.1558 C.ar    1  UNL1       -0.0041
      8 O         140.8698  142.2984  166.3441 O.3     1  UNL1       -0.4537
      9 C         140.6187  143.2587  165.2194 C.ar    1  UNL1        0.1462
     10 C         139.3421  144.0450  165.1754 C.ar    1  UNL1        0.0384
     11 C         139.0911  145.0053  164.0507 C.ar    1  UNL1        0.0154
     12 C         140.1167  145.1793  162.9701 C.ar    1  UNL1        0.0684
     13 CL        139.8657  146.1396  161.8454 Cl      1  UNL1       -0.0814
     14 C         141.3933  144.3930  163.0141 C.ar    1  UNL1        0.0712
     15 CL        142.4190  144.5671  161.9334 Cl      1  UNL1       -0.0813
     16 C         141.6444  143.4327  164.1387 C.ar    1  UNL1        0.0497
     17 C         140.3371  141.2929  169.1199 C.3     1  UNL1        0.1023
     18 N         141.5541  140.6776  169.7445 N.3     1  UNL1       -0.2664
     19 C         141.9223  141.0136  171.1593 C.3     1  UNL1        0.0899
     20 C         142.4030  139.7262  168.9543 C.3     1  UNL1        0.0899
@<TRIPOS>BOND
     1     1     2    1
     2     2     3   ar
     3     3     4   ar
     4     4     5   ar
     5     5     8    1
     6     8     9    1
     7     9    10   ar
     8    10    11   ar
     9    11    12   ar
    10    12    13    1
    11    12    14   ar
    12    14    15    1
    13    14    16   ar
    14     5     6   ar
    15     6    17    1
    16    17    18    1
    17    18    19    1
    18    18    20    1
    19     6     7   ar
    20     7     2   ar
    21    16     9   ar
@<TRIPOS>MOLECULE
*****
 20 21 0 0 0
SMALL
GASTEIGER

@<TRIPOS>ATOM
      1 C         137.1290  137.9978  167.2028 C.3     1  UNL1        0.0310
      2 C         138.4126  138.3858  166.5307 C.ar    1  UNL1       -0.0219
      3 C         139.1710  139.5914  167.0012 C.ar    1  UNL1       -0.0011
      4 C         140.4546  139.9794  166.3291 C.ar    1  UNL1        0.0369
      5 C         140.9799  139.1619  165.1865 C.ar    1  UNL1        0.1425
      6 C         140.2215  137.9563  164.7159 C.ar    1  UNL1        0.0281
      7 C         138.9379  137.5683  165.3880 C.ar    1  UNL1       -0.0041
      8 O         142.2635  139.5499  164.5144 O.3     1  UNL1       -0.4537
      9 C         142.6206  140.9984  164.3588 C.ar    1  UNL1        0.1462
     10 C         143.7214  141.5926  165.1867 C.ar    1  UNL1        0.0384
     11 C         144.0784  143.0412  165.0311 C.ar    1  UNL1        0.0154
     12 C         143.3348  143.8955  164.0477 C.ar    1  UNL1        0.0684
     13 CL        143.6919  145.3441  163.8920 Cl      1  UNL1       -0.0814
     14 C         142.2341  143.3013  163.2198 C.ar    1  UNL1        0.0712
     15 CL        141.4905  144.1557  162.2363 Cl      1  UNL1       -0.0813
     16 C         141.8770  141.8528  163.3754 C.ar    1  UNL1        0.0497
     17 C         140.7468  137.1387  163.5732 C.3     1  UNL1        0.1023
     18 N         140.6760  137.6734  162.1736 N.3     1  UNL1       -0.2664
     19 C         139.3478  138.0232  161.5706 C.3     1  UNL1        0.0899
     20 C         141.9334  137.8584  161.3769 C.3     1  UNL1        0.0899
@<TRIPOS>BOND
     1     1     2    1
     2     2     3   ar
     3     3     4   ar
     4     4     5   ar
     5     5     8    1
     6     8     9    1
     7     9    10   ar
     8    10    11   ar
     9    11    12   ar
    10    12    13    1
    11    12    14   ar
    12    14    15    1
    13    14    16   ar
    14     5     6   ar
    15     6    17    1
    16    17    18    1
    17    18    19    1
    18    18    20    1
    19     6     7   ar
    20     7     2   ar
    21    16     9   ar
@<TRIPOS>MOLECULE
*****
 20 21 0 0 0
SMALL
GASTEIGER

@<TRIPOS>ATOM
      1 C         142.9582  139.9835  170.5118 C.3     1  UNL1        0.0310
      2 C         142.0476  139.8722  169.3250 C.ar    1  UNL1       -0.0219
      3 C         140.5713  140.0801  169.4903 C.ar    1  UNL1       -0.0011
      4 C         139.6607  139.9688  168.3035 C.ar    1  UNL1        0.0369
      5 C         140.2264  139.6498  166.9515 C.ar    1  UNL1        0.1425
      6 C         141.7027  139.4419  166.7862 C.ar    1  UNL1        0.0281
      7 C         142.6133  139.5532  167.9729 C.ar    1  UNL1       -0.0041
      8 O         139.3158  139.5385  165.7647 O.3     1  UNL1       -0.4537
      9 C         138.8688  140.7756  165.0438 C.ar    1  UNL1        0.1462
     10 C         137.9102  140.6692  163.8949 C.ar    1  UNL1        0.0384
     11 C         137.4632  141.9063  163.1740 C.ar    1  UNL1        0.0154
     12 C         137.9748  143.2499  163.6019 C.ar    1  UNL1        0.0684
     13 CL        137.5278  144.4870  162.8810 Cl      1  UNL1       -0.0814
     14 C         138.9333  143.3563  164.7508 C.ar    1  UNL1        0.0712
     15 CL        139.4449  144.7000  165.1787 Cl      1  UNL1       -0.0813
     16 C         139.3803  142.1192  165.4717 C.ar    1  UNL1        0.0497
     17 C         142.2684  139.1228  165.4340 C.3     1  UNL1        0.1023
     18 N         143.2930  140.0281  164.8170 N.3     1  UNL1       -0.2664
     19 C         144.6549  139.4986  164.4783 C.3     1  UNL1        0.0899
     20 C         142.9556  141.4630  164.5387 C.3     1  UNL1        0.0899
@<TRIPOS>BOND
     1     1     2    1
     2     2     3   ar
     3     3     4   ar
     4     4     5   ar
     5     5     8    1
     6     8     9    1
     7     9    10   ar
     8    10    11   ar
     9    11    12   ar
    10    12    13    1
    11    12    14   ar
    12    14    15    1
    13    14    16   ar
    14     5     6   ar
    15     6    17    1
    16    17    18    1
    17    18    19    1
    18    18    20    1
    19     6     7   ar
    20     7     2   ar
    21    16     9   ar
@<TRIPOS>MOLECULE
*****
 20 21 0 0 0
SMALL
GASTEIGER

@<TRIPOS>ATOM
      1 C         139.0020  140.5613  169.9874 C.3     1  UNL1        0.0310
      2 C         140.0913  140.2068  169.0190 C.ar    1  UNL1       -0.0219
      3 C         141.5074  140.0791  169.4968 C.ar    1  UNL1       -0.0011
      4 C         142.5966  139.7246  168.5284 C.ar    1  UNL1        0.0369
      5 C         142.2698  139.4978  167.0821 C.ar    1  UNL1        0.1425
      6 C         140.8537  139.6255  166.6043 C.ar    1  UNL1        0.0281
      7 C         139.7645  139.9800  167.5727 C.ar    1  UNL1       -0.0041
      8 O         143.3591  139.1433  166.1137 O.3     1  UNL1       -0.4537
      9 C         143.7493  140.1115  165.0365 C.ar    1  UNL1        0.1462
     10 C         144.2217  139.6035  163.7066 C.ar    1  UNL1        0.0384
     11 C         144.6120  140.5717  162.6294 C.ar    1  UNL1        0.0154
     12 C         144.5298  142.0480  162.8822 C.ar    1  UNL1        0.0684
     13 CL        144.9201  143.0162  161.8051 Cl      1  UNL1       -0.0814
     14 C         144.0574  142.5560  164.2122 C.ar    1  UNL1        0.0712
     15 CL        143.9753  144.0323  164.4649 Cl      1  UNL1       -0.0813
     16 C         143.6672  141.5878  165.2893 C.ar    1  UNL1        0.0497
     17 C         140.5268  139.3986  165.1580 C.3     1  UNL1        0.1023
     18 N         140.1665  138.0243  164.6771 N.3     1  UNL1       -0.2664
     19 C         138.8361  137.4298  165.0333 C.3     1  UNL1        0.0899
     20 C         141.1365  137.2443  163.8400 C.3     1  UNL1        0.0899
@<TRIPOS>BOND
     1     1     2    1
     2     2     3   ar
     3     3     4   ar
     4     4     5   ar
     5     5     8    1
     6     8     9    1
     7     9    10   ar
     8    10    11   ar
     9    11    12   ar
    10    12    13    1
    11    12    14   ar
    12    14    15    1
    13    14    16   ar
    14     5     6   ar
    15     6    17    1
    16    17    18    1
    17    18    19    1
    18    18    20    1
    19     6     7   ar
    20     7     2   ar
    21    16     9   ar
@<TRIPOS>MOLECULE
*****
 20 21 0 0 0
SMALL
GASTEIGER

@<TRIPOS>ATOM
      1 C         137.0174  137.6283  167.4900 C.3     1  UNL1        0.0310
      2 C         138.0321  138.3080  166.6191 C.ar    1  UNL1       -0.0219
      3 C         138.5869  139.6438  167.0163 C.ar    1  UNL1       -0.0011
      4 C         139.6016  140.3235  166.1454 C.ar    1  UNL1        0.0369
      5 C         140.0614  139.6673  164.8773 C.ar    1  UNL1        0.1425
      6 C         139.5066  138.3316  164.4802 C.ar    1  UNL1        0.0281
      7 C         138.4919  137.6519  165.3511 C.ar    1  UNL1       -0.0041
      8 O         141.0761  140.3470  164.0064 O.3     1  UNL1       -0.4537
      9 C         140.8181  141.7338  163.4962 C.ar    1  UNL1        0.1462
     10 C         139.6946  141.9819  162.5338 C.ar    1  UNL1        0.0384
     11 C         139.4366  143.3687  162.0236 C.ar    1  UNL1        0.0154
     12 C         140.3020  144.5073  162.4759 C.ar    1  UNL1        0.0684
     13 CL        140.0440  145.8942  161.9658 Cl      1  UNL1       -0.0814
     14 C         141.4255  144.2592  163.4384 C.ar    1  UNL1        0.0712
     15 CL        142.2909  145.3979  163.8906 Cl      1  UNL1       -0.0813
     16 C         141.6835  142.8725  163.9485 C.ar    1  UNL1        0.0497
     17 C         139.9664  137.6754  163.2120 C.3     1  UNL1        0.1023
     18 N         139.4260  138.1358  161.8907 N.3     1  UNL1       -0.2664
     19 C         140.3620  138.4010  160.7489 C.3     1  UNL1        0.0899
     20 C         137.9497  138.3309  161.7111 C.3     1  UNL1        0.0899
@<TRIPOS>BOND
     1     1     2    1
     2     2     3   ar
     3     3     4   ar
     4     4     5   ar
     5     5     8    1
     6     8     9    1
     7     9    10   ar
     8    10    11   ar
     9    11    12   ar
    10    12    13    1
    11    12    14   ar
    12    14    15    1
    13    14    16   ar
    14     5     6   ar
    15     6    17    1
    16    17    18    1
    17    18    19    1
    18    18    20    1
    19     6     7   ar
    20     7     2   ar
    21    16     9   ar
@<TRIPOS>MOLECULE
*****
 20 21 0 0 0
SMALL
GASTEIGER

@<TRIPOS>ATOM
      1 C         140.6358  143.6277  170.0038 C.3     1  UNL1        0.0310
      2 C         140.7595  142.4710  169.0569 C.ar    1  UNL1       -0.0219
      3 C         139.8359  141.2959  169.1836 C.ar    1  UNL1       -0.0011
      4 C         139.9595  140.1392  168.2367 C.ar    1  UNL1        0.0369
      5 C         141.0069  140.1575  167.1630 C.ar    1  UNL1        0.1425
      6 C         141.9305  141.3326  167.0363 C.ar    1  UNL1        0.0281
      7 C         141.8068  142.4893  167.9832 C.ar    1  UNL1       -0.0041
      8 O         141.1305  139.0008  166.2161 O.3     1  UNL1       -0.4537
      9 C         140.2209  138.9041  165.0273 C.ar    1  UNL1        0.1462
     10 C         140.2595  137.6878  164.1503 C.ar    1  UNL1        0.0384
     11 C         139.3498  137.5912  162.9615 C.ar    1  UNL1        0.0154
     12 C         138.4017  138.7108  162.6497 C.ar    1  UNL1        0.0684
     13 CL        137.4920  138.6142  161.4609 Cl      1  UNL1       -0.0814
     14 C         138.3631  139.9272  163.5267 C.ar    1  UNL1        0.0712
     15 CL        137.4148  141.0469  163.2148 Cl      1  UNL1       -0.0813
     16 C         139.2727  140.0238  164.7155 C.ar    1  UNL1        0.0497
     17 C         142.9779  141.3509  165.9626 C.3     1  UNL1        0.1023
     18 N         142.5968  141.6756  164.5487 N.3     1  UNL1       -0.2664
     19 C         143.0281  140.7744  163.4298 C.3     1  UNL1        0.0899
     20 C         141.7846  142.9016  164.2535 C.3     1  UNL1        0.0899
@<TRIPOS>BOND
     1     1     2    1
     2     2     3   ar
     3     3     4   ar
     4     4     5   ar
     5     5     8    1
     6     8     9    1
     7     9    10   ar
     8    10    11   ar
     9    11    12   ar
    10    12    13    1
    11    12    14   ar
    12    14    15    1
    13    14    16   ar
    14     5     6   ar
    15     6    17    1
    16    17    18    1
    17    18    19    1
    18    18    20    1
    19     6     7   ar
    20     7     2   ar
    21    16     9   ar
