@<TRIPOS>MOLECULE
*****
 27 29 0 0 0
SMALL
GASTEIGER

@<TRIPOS>ATOM
      1 C         142.3454  140.5964  166.2341 C.ar    1  UNL1       -0.0059
      2 C         142.8644  141.9896  166.4332 C.ar    1  UNL1        0.0002
      3 C         142.9834  142.9200  165.2627 C.ar    1  UNL1        0.0366
      4 C         142.5835  142.4573  163.8931 C.ar    1  UNL1        0.1390
      5 C         142.0645  141.0641  163.6939 C.ar    1  UNL1        0.0366
      6 C         141.9454  140.1337  164.8644 C.ar    1  UNL1        0.0002
      7 C         142.2263  139.6659  167.4046 C.3     1  UNL1        0.0995
      8 C         141.7230  140.4734  169.9025 C.3     1  UNL1        0.1376
      9 C         140.4825  140.6904  170.7174 C.3     1  UNL1        0.0620
     10 C         139.2992  140.3544  169.8588 C.3     1  UNL1        0.1787
     11 F         137.8595  140.4299  170.2730 F       1  UNL1       -0.2357
     12 C         139.8085  139.9297  168.5134 C.3     1  UNL1        0.1084
     13 N         141.3064  140.0033  168.5403 N.3     1  UNL1       -0.2603
     14 N         143.7756  139.7001  171.2950 N.am    1  UNL1       -0.3277
     15 C         143.1325  140.6887  170.3681 C.2     1  UNL1        0.2340
     16 O         143.8991  141.8926  169.9067 O.2     1  UNL1       -0.2739
     17 H         144.7007  139.8415  171.6006 H       1  UNL1        0.1450
     18 H         143.2725  138.9099  171.5979 H       1  UNL1        0.1450
     19 O         142.7026  143.3878  162.7226 O.3     1  UNL1       -0.4706
     20 C         141.5272  144.2201  162.3035 C.3     1  UNL1        0.2321
     21 C         140.2157  144.0793  163.0179 C.ar    1  UNL1        0.0234
     22 C         139.1626  143.1576  162.4780 C.ar    1  UNL1       -0.0005
     23 C         137.8512  143.0169  163.1924 C.ar    1  UNL1        0.0021
     24 C         137.5929  143.7980  164.4466 C.ar    1  UNL1        0.0296
     25 C         138.6459  144.7197  164.9865 C.ar    1  UNL1        0.1399
     26 F         138.3875  145.5007  166.2408 F       1  UNL1       -0.2042
     27 C         139.9573  144.8604  164.2721 C.ar    1  UNL1        0.0289
@<TRIPOS>BOND
     1    14    15   am
     2    15    16    2
     3     8    15    1
     4     8     9    1
     5     9    10    1
     6    10    11    1
     7    10    12    1
     8    12    13    1
     9    13     7    1
    10     7     1    1
    11     1     2   ar
    12     2     3   ar
    13     3     4   ar
    14     4    19    1
    15    19    20    1
    16    20    21    1
    17    21    22   ar
    18    22    23   ar
    19    23    24   ar
    20    24    25   ar
    21    25    26    1
    22    25    27   ar
    23     4     5   ar
    24     5     6   ar
    25    13     8    1
    26     6     1   ar
    27    27    21   ar
    28    14    17    1
    29    14    18    1
@<TRIPOS>MOLECULE
*****
 27 29 0 0 0
SMALL
GASTEIGER

@<TRIPOS>ATOM
      1 C         139.5216  142.6831  165.2879 C.ar    1  UNL1       -0.0059
      2 C         138.4030  142.0837  164.4883 C.ar    1  UNL1        0.0002
      3 C         137.8919  140.7139  164.8233 C.ar    1  UNL1        0.0366
      4 C         138.4993  139.9435  165.9580 C.ar    1  UNL1        0.1390
      5 C         139.6180  140.5429  166.7576 C.ar    1  UNL1        0.0366
      6 C         140.1291  141.9127  166.4225 C.ar    1  UNL1        0.0002
      7 C         140.0328  144.0530  164.9529 C.3     1  UNL1        0.0995
      8 C         140.8460  144.6795  162.4849 C.3     1  UNL1        0.1376
      9 C         142.1691  144.7065  161.7789 C.3     1  UNL1        0.0620
     10 C         143.2228  144.2675  162.7521 C.3     1  UNL1        0.1787
     11 F         144.6908  144.1478  162.4678 F       1  UNL1       -0.2357
     12 C         142.5508  143.9693  164.0596 C.3     1  UNL1        0.1084
     13 N         141.0818  144.2239  163.8944 N.3     1  UNL1       -0.2603
     14 N         139.2346  146.4666  161.5048 N.am    1  UNL1       -0.3277
     15 C         139.5198  145.0442  161.8864 C.2     1  UNL1        0.2340
     16 O         138.4786  143.9864  161.6693 O.2     1  UNL1       -0.2739
     17 H         138.3642  146.7059  161.1120 H       1  UNL1        0.1450
     18 H         139.9180  147.1609  161.6473 H       1  UNL1        0.1450
     19 O         137.9881  138.5736  166.2930 O.3     1  UNL1       -0.4706
     20 C         138.5699  137.3692  165.6141 C.3     1  UNL1        0.2321
     21 C         139.4763  137.5398  164.4311 C.ar    1  UNL1        0.0234
     22 C         140.9636  137.5664  164.6236 C.ar    1  UNL1       -0.0005
     23 C         141.8700  137.7369  163.4406 C.ar    1  UNL1        0.0021
     24 C         141.2890  137.8809  162.0652 C.ar    1  UNL1        0.0296
     25 C         139.8016  137.8542  161.8728 C.ar    1  UNL1        0.1399
     26 F         139.2206  137.9982  160.4974 F       1  UNL1       -0.2042
     27 C         138.8953  137.6837  163.0557 C.ar    1  UNL1        0.0289
@<TRIPOS>BOND
     1    14    15   am
     2    15    16    2
     3     8    15    1
     4     8     9    1
     5     9    10    1
     6    10    11    1
     7    10    12    1
     8    12    13    1
     9    13     7    1
    10     7     1    1
    11     1     2   ar
    12     2     3   ar
    13     3     4   ar
    14     4    19    1
    15    19    20    1
    16    20    21    1
    17    21    22   ar
    18    22    23   ar
    19    23    24   ar
    20    24    25   ar
    21    25    26    1
    22    25    27   ar
    23     4     5   ar
    24     5     6   ar
    25    13     8    1
    26     6     1   ar
    27    27    21   ar
    28    14    17    1
    29    14    18    1
@<TRIPOS>MOLECULE
*****
 27 29 0 0 0
SMALL
GASTEIGER

@<TRIPOS>ATOM
      1 C         140.0895  141.8176  166.3796 C.ar    1  UNL1       -0.0059
      2 C         139.8767  143.2934  166.5431 C.ar    1  UNL1        0.0002
      3 C         139.4420  144.1228  165.3714 C.ar    1  UNL1        0.0366
      4 C         139.2199  143.4764  164.0361 C.ar    1  UNL1        0.1390
      5 C         139.4327  142.0006  163.8726 C.ar    1  UNL1        0.0366
      6 C         139.8675  141.1713  165.0444 C.ar    1  UNL1        0.0002
      7 C         140.5243  140.9882  167.5514 C.3     1  UNL1        0.0995
      8 C         141.0873  142.0987  169.9167 C.3     1  UNL1        0.1376
      9 C         142.3390  142.5681  170.5970 C.3     1  UNL1        0.0620
     10 C         143.4914  142.3214  169.6689 C.3     1  UNL1        0.1787
     11 F         144.9306  142.6406  169.9460 F       1  UNL1       -0.2357
     12 C         142.9518  141.6995  168.4151 C.3     1  UNL1        0.1084
     13 N         141.4660  141.5619  168.5682 N.3     1  UNL1       -0.2603
     14 N         139.2326  143.3899  171.1986 N.am    1  UNL1       -0.3277
     15 C         139.7004  142.1561  170.4851 C.2     1  UNL1        0.2340
     16 O         138.7812  140.9796  170.3401 O.2     1  UNL1       -0.2739
     17 H         138.3223  143.4275  171.5716 H       1  UNL1        0.1450
     18 H         139.8358  144.1620  171.2938 H       1  UNL1        0.1450
     19 O         138.7852  144.3059  162.8643 O.3     1  UNL1       -0.4706
     20 C         139.8086  145.0043  162.0189 C.3     1  UNL1        0.2321
     21 C         141.2667  144.7068  162.2075 C.ar    1  UNL1        0.0234
     22 C         141.9695  143.7736  161.2667 C.ar    1  UNL1       -0.0005
     23 C         143.4275  143.4762  161.4553 C.ar    1  UNL1        0.0021
     24 C         144.1827  144.1119  162.5847 C.ar    1  UNL1        0.0296
     25 C         143.4799  145.0451  163.5255 C.ar    1  UNL1        0.1399
     26 F         144.2351  145.6808  164.6549 F       1  UNL1       -0.2042
     27 C         142.0219  145.3425  163.3369 C.ar    1  UNL1        0.0289
@<TRIPOS>BOND
     1    14    15   am
     2    15    16    2
     3     8    15    1
     4     8     9    1
     5     9    10    1
     6    10    11    1
     7    10    12    1
     8    12    13    1
     9    13     7    1
    10     7     1    1
    11     1     2   ar
    12     2     3   ar
    13     3     4   ar
    14     4    19    1
    15    19    20    1
    16    20    21    1
    17    21    22   ar
    18    22    23   ar
    19    23    24   ar
    20    24    25   ar
    21    25    26    1
    22    25    27   ar
    23     4     5   ar
    24     5     6   ar
    25    13     8    1
    26     6     1   ar
    27    27    21   ar
    28    14    17    1
    29    14    18    1
@<TRIPOS>MOLECULE
*****
 27 29 0 0 0
SMALL
GASTEIGER

@<TRIPOS>ATOM
      1 C         140.5173  139.8099  166.9538 C.ar    1  UNL1       -0.0059
      2 C         141.2793  139.4233  165.7211 C.ar    1  UNL1        0.0002
      3 C         140.5414  139.0210  164.4786 C.ar    1  UNL1        0.0366
      4 C         139.0416  139.0054  164.4689 C.ar    1  UNL1        0.1390
      5 C         138.2795  139.3921  165.7017 C.ar    1  UNL1        0.0366
      6 C         139.0174  139.7943  166.9442 C.ar    1  UNL1        0.0002
      7 C         141.2552  140.2122  168.1964 C.3     1  UNL1        0.0995
      8 C         139.7808  141.2773  170.1551 C.3     1  UNL1        0.1376
      9 C         139.5744  142.6617  170.6943 C.3     1  UNL1        0.0620
     10 C         140.4270  143.6023  169.8953 C.3     1  UNL1        0.1787
     11 F         140.5284  145.0856  170.0944 F       1  UNL1       -0.2357
     12 C         141.1604  142.7992  168.8623 C.3     1  UNL1        0.1084
     13 N         140.7611  141.3622  169.0229 N.3     1  UNL1       -0.2603
     14 N         139.8892  139.0737  171.5272 N.am    1  UNL1       -0.3277
     15 C         139.1226  140.0274  170.6596 C.2     1  UNL1        0.2340
     16 O         137.6977  139.7312  170.2964 O.2     1  UNL1       -0.2739
     17 H         139.4571  138.2534  171.8583 H       1  UNL1        0.1450
     18 H         140.8244  139.2681  171.7656 H       1  UNL1        0.1450
     19 O         138.3037  138.6032  163.2264 O.3     1  UNL1       -0.4706
     20 C         138.0292  139.6172  162.1557 C.3     1  UNL1        0.2321
     21 C         138.3396  141.0649  162.3964 C.ar    1  UNL1        0.0234
     22 C         137.3635  141.9276  163.1400 C.ar    1  UNL1       -0.0005
     23 C         137.6739  143.3752  163.3807 C.ar    1  UNL1        0.0021
     24 C         138.9603  143.9601  162.8778 C.ar    1  UNL1        0.0296
     25 C         139.9364  143.0974  162.1342 C.ar    1  UNL1        0.1399
     26 F         141.2228  143.6824  161.6313 F       1  UNL1       -0.2042
     27 C         139.6260  141.6498  161.8935 C.ar    1  UNL1        0.0289
@<TRIPOS>BOND
     1    14    15   am
     2    15    16    2
     3     8    15    1
     4     8     9    1
     5     9    10    1
     6    10    11    1
     7    10    12    1
     8    12    13    1
     9    13     7    1
    10     7     1    1
    11     1     2   ar
    12     2     3   ar
    13     3     4   ar
    14     4    19    1
    15    19    20    1
    16    20    21    1
    17    21    22   ar
    18    22    23   ar
    19    23    24   ar
    20    24    25   ar
    21    25    26    1
    22    25    27   ar
    23     4     5   ar
    24     5     6   ar
    25    13     8    1
    26     6     1   ar
    27    27    21   ar
    28    14    17    1
    29    14    18    1
@<TRIPOS>MOLECULE
*****
 27 29 0 0 0
SMALL
GASTEIGER

@<TRIPOS>ATOM
      1 C         138.3210  141.1998  163.8589 C.ar    1  UNL1       -0.0059
      2 C         138.4415  142.3743  164.7841 C.ar    1  UNL1        0.0002
      3 C         138.4236  143.7688  164.2320 C.ar    1  UNL1        0.0366
      4 C         138.2854  143.9889  162.7547 C.ar    1  UNL1        0.1390
      5 C         138.1649  142.8144  161.8295 C.ar    1  UNL1        0.0366
      6 C         138.1828  141.4199  162.3816 C.ar    1  UNL1        0.0002
      7 C         138.3389  139.8052  164.4110 C.3     1  UNL1        0.0995
      8 C         140.0939  138.1644  163.2395 C.3     1  UNL1        0.1376
      9 C         141.3979  137.5427  163.6435 C.3     1  UNL1        0.0620
     10 C         141.7163  137.9978  165.0370 C.3     1  UNL1        0.1787
     11 F         142.9289  137.6169  165.8334 F       1  UNL1       -0.2357
     12 C         140.6091  138.9007  165.4940 C.3     1  UNL1        0.1084
     13 N         139.6064  139.0037  164.3831 N.3     1  UNL1       -0.2603
     14 N         137.9689  137.5294  161.8861 N.am    1  UNL1       -0.3277
     15 C         139.3994  137.9793  161.9229 C.2     1  UNL1        0.2340
     16 O         140.1354  138.2440  160.6430 O.2     1  UNL1       -0.2739
     17 H         137.5132  137.4079  161.0220 H       1  UNL1        0.1450
     18 H         137.4858  137.3556  162.7262 H       1  UNL1        0.1450
     19 O         138.2675  145.3836  162.2026 O.3     1  UNL1       -0.4706
     20 C         139.5570  146.1079  161.9530 C.3     1  UNL1        0.2321
     21 C         140.8654  145.4104  162.1809 C.ar    1  UNL1        0.0234
     22 C         141.5700  145.5493  163.4977 C.ar    1  UNL1       -0.0005
     23 C         142.8783  144.8518  163.7255 C.ar    1  UNL1        0.0021
     24 C         143.4819  144.0155  162.6364 C.ar    1  UNL1        0.0296
     25 C         142.7773  143.8766  161.3195 C.ar    1  UNL1        0.1399
     26 F         143.3809  143.0403  160.2304 F       1  UNL1       -0.2042
     27 C         141.4690  144.5741  161.0918 C.ar    1  UNL1        0.0289
@<TRIPOS>BOND
     1    14    15   am
     2    15    16    2
     3     8    15    1
     4     8     9    1
     5     9    10    1
     6    10    11    1
     7    10    12    1
     8    12    13    1
     9    13     7    1
    10     7     1    1
    11     1     2   ar
    12     2     3   ar
    13     3     4   ar
    14     4    19    1
    15    19    20    1
    16    20    21    1
    17    21    22   ar
    18    22    23   ar
    19    23    24   ar
    20    24    25   ar
    21    25    26    1
    22    25    27   ar
    23     4     5   ar
    24     5     6   ar
    25    13     8    1
    26     6     1   ar
    27    27    21   ar
    28    14    17    1
    29    14    18    1
@<TRIPOS>MOLECULE
*****
 27 29 0 0 0
SMALL
GASTEIGER

@<TRIPOS>ATOM
      1 C         140.1748  141.1379  166.3818 C.ar    1  UNL1       -0.0059
      2 C         139.8303  140.6035  165.0233 C.ar    1  UNL1        0.0002
      3 C         139.3815  141.5398  163.9408 C.ar    1  UNL1        0.0366
      4 C         139.2772  143.0105  164.2168 C.ar    1  UNL1        0.1390
      5 C         139.6217  143.5449  165.5753 C.ar    1  UNL1        0.0366
      6 C         140.0705  142.6086  166.6578 C.ar    1  UNL1        0.0002
      7 C         140.6237  140.2016  167.4644 C.3     1  UNL1        0.0995
      8 C         141.0995  140.7580  170.0351 C.3     1  UNL1        0.1376
      9 C         142.2545  141.3340  170.7995 C.3     1  UNL1        0.0620
     10 C         143.3507  141.6398  169.8224 C.3     1  UNL1        0.1787
     11 F         144.6894  142.2290  170.1551 F       1  UNL1       -0.2357
     12 C         142.8732  141.2528  168.4541 C.3     1  UNL1        0.1084
     13 N         141.4819  140.7078  168.5856 N.3     1  UNL1       -0.2603
     14 N         139.7342  139.0821  171.4765 N.am    1  UNL1       -0.3277
     15 C         139.7918  140.3108  170.6180 C.2     1  UNL1        0.2340
     16 O         138.5414  141.0923  170.3424 O.2     1  UNL1       -0.2739
     17 H         138.8759  138.7886  171.8591 H       1  UNL1        0.1450
     18 H         140.5548  138.5691  171.6574 H       1  UNL1        0.1450
     19 O         138.8283  143.9468  163.1342 O.3     1  UNL1       -0.4706
     20 C         139.7699  144.9874  162.6046 C.3     1  UNL1        0.2321
     21 C         141.2496  144.7425  162.6297 C.ar    1  UNL1        0.0234
     22 C         142.0964  145.3740  163.6946 C.ar    1  UNL1       -0.0005
     23 C         143.5760  145.1290  163.7197 C.ar    1  UNL1        0.0021
     24 C         144.2089  144.2525  162.6799 C.ar    1  UNL1        0.0296
     25 C         143.3621  143.6210  161.6150 C.ar    1  UNL1        0.1399
     26 F         143.9949  142.7444  160.5752 F       1  UNL1       -0.2042
     27 C         141.8825  143.8659  161.5899 C.ar    1  UNL1        0.0289
@<TRIPOS>BOND
     1    14    15   am
     2    15    16    2
     3     8    15    1
     4     8     9    1
     5     9    10    1
     6    10    11    1
     7    10    12    1
     8    12    13    1
     9    13     7    1
    10     7     1    1
    11     1     2   ar
    12     2     3   ar
    13     3     4   ar
    14     4    19    1
    15    19    20    1
    16    20    21    1
    17    21    22   ar
    18    22    23   ar
    19    23    24   ar
    20    24    25   ar
    21    25    26    1
    22    25    27   ar
    23     4     5   ar
    24     5     6   ar
    25    13     8    1
    26     6     1   ar
    27    27    21   ar
    28    14    17    1
    29    14    18    1
@<TRIPOS>MOLECULE
*****
 27 29 0 0 0
SMALL
GASTEIGER

@<TRIPOS>ATOM
      1 C         138.8942  141.3342  165.0275 C.ar    1  UNL1       -0.0059
      2 C         138.3426  141.2420  163.6357 C.ar    1  UNL1        0.0002
      3 C         138.1705  142.4846  162.8134 C.ar    1  UNL1        0.0366
      4 C         138.5499  143.8194  163.3829 C.ar    1  UNL1        0.1390
      5 C         139.1015  143.9116  164.7748 C.ar    1  UNL1        0.0366
      6 C         139.2736  142.6689  165.5970 C.ar    1  UNL1        0.0002
      7 C         139.0664  140.0915  165.8499 C.3     1  UNL1        0.0995
      8 C         140.7920  140.0951  167.8912 C.3     1  UNL1        0.1376
      9 C         142.2000  139.6180  168.0906 C.3     1  UNL1        0.0620
     10 C         142.6718  139.0140  166.8012 C.3     1  UNL1        0.1787
     11 F         144.0229  138.4119  166.5519 F       1  UNL1       -0.2357
     12 C         141.5554  139.1179  165.8048 C.3     1  UNL1        0.1084
     13 N         140.3936  139.7860  166.4785 N.3     1  UNL1       -0.2603
     14 N         138.8920  139.9736  169.6592 N.am    1  UNL1       -0.3277
     15 C         139.9332  140.7638  168.9233 C.2     1  UNL1        0.2340
     16 O         140.1155  142.2229  169.2195 O.2     1  UNL1       -0.2739
     17 H         138.3284  140.4125  170.3366 H       1  UNL1        0.1450
     18 H         138.7723  139.0159  169.4648 H       1  UNL1        0.1450
     19 O         138.3778  145.0621  162.5606 O.3     1  UNL1       -0.4706
     20 C         139.5819  145.7936  162.0459 C.3     1  UNL1        0.2321
     21 C         140.9448  145.1813  162.1783 C.ar    1  UNL1        0.0234
     22 C         141.4287  144.1994  161.1528 C.ar    1  UNL1       -0.0005
     23 C         142.7916  143.5871  161.2853 C.ar    1  UNL1        0.0021
     24 C         143.6706  143.9567  162.4432 C.ar    1  UNL1        0.0296
     25 C         143.1867  144.9386  163.4687 C.ar    1  UNL1        0.1399
     26 F         144.0657  145.3083  164.6266 F       1  UNL1       -0.2042
     27 C         141.8238  145.5509  163.3362 C.ar    1  UNL1        0.0289
@<TRIPOS>BOND
     1    14    15   am
     2    15    16    2
     3     8    15    1
     4     8     9    1
     5     9    10    1
     6    10    11    1
     7    10    12    1
     8    12    13    1
     9    13     7    1
    10     7     1    1
    11     1     2   ar
    12     2     3   ar
    13     3     4   ar
    14     4    19    1
    15    19    20    1
    16    20    21    1
    17    21    22   ar
    18    22    23   ar
    19    23    24   ar
    20    24    25   ar
    21    25    26    1
    22    25    27   ar
    23     4     5   ar
    24     5     6   ar
    25    13     8    1
    26     6     1   ar
    27    27    21   ar
    28    14    17    1
    29    14    18    1
@<TRIPOS>MOLECULE
*****
 27 29 0 0 0
SMALL
GASTEIGER

@<TRIPOS>ATOM
      1 C         138.1877  141.6479  164.2761 C.ar    1  UNL1       -0.0059
      2 C         138.4094  142.9139  165.0495 C.ar    1  UNL1        0.0002
      3 C         138.4680  144.2301  164.3326 C.ar    1  UNL1        0.0366
      4 C         138.3050  144.2804  162.8423 C.ar    1  UNL1        0.1390
      5 C         138.0834  143.0144  162.0690 C.ar    1  UNL1        0.0366
      6 C         138.0248  141.6981  162.7859 C.ar    1  UNL1        0.0002
      7 C         138.1291  140.3315  164.9931 C.3     1  UNL1        0.0995
      8 C         140.5027  139.3768  165.7673 C.3     1  UNL1        0.1376
      9 C         141.3885  138.2503  165.3243 C.3     1  UNL1        0.0620
     10 C         140.7131  137.5513  164.1817 C.3     1  UNL1        0.1787
     11 F         141.2472  136.3659  163.4337 F       1  UNL1       -0.2357
     12 C         139.4100  138.2459  163.9186 C.3     1  UNL1        0.1084
     13 N         139.2799  139.3741  164.8985 N.3     1  UNL1       -0.2603
     14 N         141.4326  141.6599  166.5876 N.am    1  UNL1       -0.3277
     15 C         140.7894  140.3374  166.8831 C.2     1  UNL1        0.2340
     16 O         140.4329  139.9755  168.2944 O.2     1  UNL1       -0.2739
     17 H         141.6207  142.2903  167.3200 H       1  UNL1        0.1450
     18 H         141.6666  141.8975  165.6613 H       1  UNL1        0.1450
     19 O         138.3636  145.5967  162.1254 O.3     1  UNL1       -0.4706
     20 C         139.6899  146.1850  161.7449 C.3     1  UNL1        0.2321
     21 C         140.9447  145.3819  161.9201 C.ar    1  UNL1        0.0234
     22 C         141.3823  144.4306  160.8462 C.ar    1  UNL1       -0.0005
     23 C         142.6370  143.6275  161.0214 C.ar    1  UNL1        0.0021
     24 C         143.4542  143.7759  162.2705 C.ar    1  UNL1        0.0296
     25 C         143.0166  144.7273  163.3444 C.ar    1  UNL1        0.1399
     26 F         143.8337  144.8757  164.5935 F       1  UNL1       -0.2042
     27 C         141.7618  145.5303  163.1692 C.ar    1  UNL1        0.0289
@<TRIPOS>BOND
     1    14    15   am
     2    15    16    2
     3     8    15    1
     4     8     9    1
     5     9    10    1
     6    10    11    1
     7    10    12    1
     8    12    13    1
     9    13     7    1
    10     7     1    1
    11     1     2   ar
    12     2     3   ar
    13     3     4   ar
    14     4    19    1
    15    19    20    1
    16    20    21    1
    17    21    22   ar
    18    22    23   ar
    19    23    24   ar
    20    24    25   ar
    21    25    26    1
    22    25    27   ar
    23     4     5   ar
    24     5     6   ar
    25    13     8    1
    26     6     1   ar
    27    27    21   ar
    28    14    17    1
    29    14    18    1
@<TRIPOS>MOLECULE
*****
 27 29 0 0 0
SMALL
GASTEIGER

@<TRIPOS>ATOM
      1 C         142.4466  140.5992  165.7388 C.ar    1  UNL1       -0.0059
      2 C         142.9493  141.9666  166.0957 C.ar    1  UNL1        0.0002
      3 C         143.1337  143.0009  165.0252 C.ar    1  UNL1        0.0366
      4 C         142.8155  142.6677  163.5977 C.ar    1  UNL1        0.1390
      5 C         142.3128  141.3003  163.2408 C.ar    1  UNL1        0.0366
      6 C         142.1284  140.2660  164.3113 C.ar    1  UNL1        0.0002
      7 C         142.2621  139.5648  166.8095 C.3     1  UNL1        0.0995
      8 C         139.8761  139.9659  167.9455 C.3     1  UNL1        0.1376
      9 C         139.3997  140.2564  169.3378 C.3     1  UNL1        0.0620
     10 C         140.6003  140.3197  170.2349 C.3     1  UNL1        0.1787
     11 F         140.5851  140.5874  171.7107 F       1  UNL1       -0.2357
     12 C         141.8187  140.0683  169.3969 C.3     1  UNL1        0.1084
     13 N         141.3711  139.8497  167.9820 N.3     1  UNL1       -0.2603
     14 N         138.9243  140.9317  165.7293 N.am    1  UNL1       -0.3277
     15 C         139.0096  139.8176  166.7301 C.2     1  UNL1        0.2340
     16 O         138.2283  138.5553  166.5155 O.2     1  UNL1       -0.2739
     17 H         138.3556  140.8343  164.9316 H       1  UNL1        0.1450
     18 H         139.4371  141.7602  165.8701 H       1  UNL1        0.1450
     19 O         142.9999  143.7021  162.5271 O.3     1  UNL1       -0.4706
     20 C         141.8392  144.5468  162.0923 C.3     1  UNL1        0.2321
     21 C         140.4901  144.3462  162.7168 C.ar    1  UNL1        0.0234
     22 C         139.4508  143.5274  162.0101 C.ar    1  UNL1       -0.0005
     23 C         138.1018  143.3268  162.6346 C.ar    1  UNL1        0.0021
     24 C         137.7922  143.9450  163.9657 C.ar    1  UNL1        0.0296
     25 C         138.8315  144.7638  164.6724 C.ar    1  UNL1        0.1399
     26 F         138.5218  145.3820  166.0036 F       1  UNL1       -0.2042
     27 C         140.1804  144.9644  164.0479 C.ar    1  UNL1        0.0289
@<TRIPOS>BOND
     1    14    15   am
     2    15    16    2
     3     8    15    1
     4     8     9    1
     5     9    10    1
     6    10    11    1
     7    10    12    1
     8    12    13    1
     9    13     7    1
    10     7     1    1
    11     1     2   ar
    12     2     3   ar
    13     3     4   ar
    14     4    19    1
    15    19    20    1
    16    20    21    1
    17    21    22   ar
    18    22    23   ar
    19    23    24   ar
    20    24    25   ar
    21    25    26    1
    22    25    27   ar
    23     4     5   ar
    24     5     6   ar
    25    13     8    1
    26     6     1   ar
    27    27    21   ar
    28    14    17    1
    29    14    18    1
