@<TRIPOS>MOLECULE
*****
 31 34 0 0 0
SMALL
GASTEIGER

@<TRIPOS>ATOM
      1 N         140.0095  143.2225  166.2654 N.3     1  UNL1       -0.3199
      2 C         141.0289  143.0096  165.1857 C.3     1  UNL1        0.0841
      3 C         140.8000  143.5762  163.8158 C.3     1  UNL1        0.0368
      4 C         141.8193  143.3634  162.7362 C.3     1  UNL1        0.0892
      5 C         143.0676  142.5840  163.0265 C.3     1  UNL1        0.1584
      6 O         143.2965  142.0174  164.3964 O.3     1  UNL1       -0.3490
      7 C         142.2771  142.2302  165.4760 C.3     1  UNL1        0.1538
      8 H         139.2316  143.7690  165.8955 H       1  UNL1        0.1189
      9 H         140.4378  143.7241  167.0433 H       1  UNL1        0.1189
     10 N         141.5904  143.9300  161.3663 N.3     1  UNL1       -0.2627
     11 C         142.4202  143.6533  160.1478 C.3     1  UNL1        0.1022
     12 C         141.8341  144.4251  159.0028 C.ar    1  UNL1        0.0280
     13 C         142.2319  144.5389  157.5611 C.ar    1  UNL1        0.0988
     14 N         141.4376  145.4064  156.6302 N.ar    1  UNL1       -0.2221
     15 C         140.2455  146.1600  157.1411 C.ar    1  UNL1        0.2349
     16 N         139.8477  146.0461  158.5829 N.ar    1  UNL1       -0.2266
     17 C         140.6420  145.1787  159.5137 C.ar    1  UNL1        0.0756
     18 C         140.4914  144.8727  160.9744 C.3     1  UNL1        0.1187
     19 C         139.4512  147.0275  156.2101 C.3     1  UNL1        0.4523
     20 F         138.6570  147.8950  155.2793 F       1  UNL1       -0.1632
     21 F         139.9823  146.2563  155.0383 F       1  UNL1       -0.1632
     22 F         138.9201  147.7986  157.3819 F       1  UNL1       -0.1632
     23 C         142.5061  141.6636  166.8459 C.ar    1  UNL1        0.0357
     24 C         143.2056  142.4834  167.8893 C.ar    1  UNL1        0.0323
     25 C         143.4345  141.9168  169.2591 C.ar    1  UNL1        0.1673
     26 F         144.1340  142.7366  170.3025 F       1  UNL1       -0.2018
     27 C         142.9639  140.5305  169.5856 C.ar    1  UNL1        0.1696
     28 F         143.1928  139.9639  170.9555 F       1  UNL1       -0.2017
     29 C         142.2644  139.7107  168.5423 C.ar    1  UNL1        0.0613
     30 C         142.0355  140.2773  167.1724 C.ar    1  UNL1        0.1408
     31 F         141.3360  139.4575  166.1290 F       1  UNL1       -0.2043
@<TRIPOS>BOND
     1     2     1    1
     2     2     3    1
     3     3     4    1
     4     4    10    1
     5    10    11    1
     6    11    12    1
     7    12    13   ar
     8    13    14   ar
     9    14    15   ar
    10    15    19    1
    11    19    20    1
    12    19    21    1
    13    19    22    1
    14    15    16   ar
    15    16    17   ar
    16    17    18    1
    17     4     5    1
    18     5     6    1
    19     6     7    1
    20     7    23    1
    21    23    24   ar
    22    24    25   ar
    23    25    26    1
    24    25    27   ar
    25    27    28    1
    26    27    29   ar
    27    29    30   ar
    28    30    31    1
    29     7     2    1
    30    30    23   ar
    31    18    10    1
    32    17    12   ar
    33     1     8    1
    34     1     9    1
@<TRIPOS>MOLECULE
*****
 31 34 0 0 0
SMALL
GASTEIGER

@<TRIPOS>ATOM
      1 N         143.7993  138.3574  166.5223 N.3     1  UNL1       -0.3199
      2 C         143.1979  139.2261  165.4574 C.3     1  UNL1        0.0841
      3 C         143.3566  138.8588  164.0117 C.3     1  UNL1        0.0368
      4 C         142.7554  139.7274  162.9469 C.3     1  UNL1        0.0892
      5 C         141.9954  140.9633  163.3277 C.3     1  UNL1        0.1584
      6 O         141.8367  141.3305  164.7733 O.3     1  UNL1       -0.3490
      7 C         142.4380  140.4619  165.8382 C.3     1  UNL1        0.1538
      8 H         144.2756  137.5671  166.0875 H       1  UNL1        0.1189
      9 H         143.0617  138.0134  167.1371 H       1  UNL1        0.1189
     10 N         142.9141  139.3602  161.5012 N.3     1  UNL1       -0.2627
     11 C         143.2987  140.2933  160.3915 C.3     1  UNL1        0.1022
     12 C         143.3383  139.5051  159.1159 C.ar    1  UNL1        0.0280
     13 C         143.6558  139.8972  157.7033 C.ar    1  UNL1        0.0988
     14 N         143.6132  138.8691  156.6120 N.ar    1  UNL1       -0.2221
     15 C         143.2531  137.4488  156.9333 C.ar    1  UNL1        0.2349
     16 N         142.9356  137.0567  158.3459 N.ar    1  UNL1       -0.2266
     17 C         142.9782  138.0849  159.4372 C.ar    1  UNL1        0.0756
     18 C         142.7161  137.9953  160.9114 C.3     1  UNL1        0.1187
     19 C         143.2105  136.4206  155.8419 C.3     1  UNL1        0.4523
     20 F         143.1679  135.3924  154.7505 F       1  UNL1       -0.1632
     21 F         144.5578  136.8734  155.3626 F       1  UNL1       -0.1632
     22 F         141.8632  135.9678  156.3211 F       1  UNL1       -0.1632
     23 C         142.2793  140.8292  167.2838 C.ar    1  UNL1        0.0357
     24 C         141.4257  139.9847  168.1829 C.ar    1  UNL1        0.0323
     25 C         141.2670  140.3520  169.6285 C.ar    1  UNL1        0.1673
     26 F         140.4134  139.5075  170.5275 F       1  UNL1       -0.2018
     27 C         141.9619  141.5637  170.1752 C.ar    1  UNL1        0.1696
     28 F         141.8032  141.9310  171.6208 F       1  UNL1       -0.2017
     29 C         142.8155  142.4081  169.2762 C.ar    1  UNL1        0.0613
     30 C         142.9742  142.0409  167.8305 C.ar    1  UNL1        0.1408
     31 F         143.8278  142.8854  166.9315 F       1  UNL1       -0.2043
@<TRIPOS>BOND
     1     2     1    1
     2     2     3    1
     3     3     4    1
     4     4    10    1
     5    10    11    1
     6    11    12    1
     7    12    13   ar
     8    13    14   ar
     9    14    15   ar
    10    15    19    1
    11    19    20    1
    12    19    21    1
    13    19    22    1
    14    15    16   ar
    15    16    17   ar
    16    17    18    1
    17     4     5    1
    18     5     6    1
    19     6     7    1
    20     7    23    1
    21    23    24   ar
    22    24    25   ar
    23    25    26    1
    24    25    27   ar
    25    27    28    1
    26    27    29   ar
    27    29    30   ar
    28    30    31    1
    29     7     2    1
    30    30    23   ar
    31    18    10    1
    32    17    12   ar
    33     1     8    1
    34     1     9    1
@<TRIPOS>MOLECULE
*****
 31 34 0 0 0
SMALL
GASTEIGER

@<TRIPOS>ATOM
      1 N         141.8539  145.9800  159.0822 N.3     1  UNL1       -0.3199
      2 C         140.8516  144.8663  159.1550 C.3     1  UNL1        0.0841
      3 C         140.6743  144.0992  160.4318 C.3     1  UNL1        0.0368
      4 C         139.6721  142.9855  160.5046 C.3     1  UNL1        0.0892
      5 C         138.8473  142.6390  159.3007 C.3     1  UNL1        0.1584
      6 O         139.0246  143.4060  158.0239 O.3     1  UNL1       -0.3490
      7 C         140.0268  144.5197  157.9511 C.3     1  UNL1        0.1538
      8 H         142.3207  146.0767  159.9840 H       1  UNL1        0.1189
      9 H         141.3774  146.8516  158.8508 H       1  UNL1        0.1189
     10 N         139.4947  142.2185  161.7814 N.3     1  UNL1       -0.2627
     11 C         139.9954  142.6301  163.1341 C.3     1  UNL1        0.1022
     12 C         139.5957  141.5711  164.1184 C.ar    1  UNL1        0.0280
     13 C         139.8160  141.4399  165.5963 C.ar    1  UNL1        0.0988
     14 N         139.2885  140.2425  166.3297 N.ar    1  UNL1       -0.2221
     15 C         138.5407  139.1764  165.5853 C.ar    1  UNL1        0.2349
     16 N         138.3204  139.3076  164.1074 N.ar    1  UNL1       -0.2266
     17 C         138.8479  140.5050  163.3740 C.ar    1  UNL1        0.0756
     18 C         138.7855  140.9051  161.9297 C.3     1  UNL1        0.1187
     19 C         138.0132  137.9790  166.3189 C.3     1  UNL1        0.4523
     20 F         137.4857  136.7817  167.0524 F       1  UNL1       -0.1632
     21 F         138.7729  137.0766  165.3924 F       1  UNL1       -0.1632
     22 F         137.2534  138.8813  167.2454 F       1  UNL1       -0.1632
     23 C         140.2042  145.2868  156.6743 C.ar    1  UNL1        0.0357
     24 C         139.5272  146.6133  156.4961 C.ar    1  UNL1        0.0323
     25 C         139.7045  147.3804  155.2194 C.ar    1  UNL1        0.1673
     26 F         139.0274  148.7070  155.0412 F       1  UNL1       -0.2018
     27 C         140.5589  146.8209  154.1208 C.ar    1  UNL1        0.1696
     28 F         140.7363  147.5880  152.8440 F       1  UNL1       -0.2017
     29 C         141.2359  145.4943  154.2990 C.ar    1  UNL1        0.0613
     30 C         141.0586  144.7273  155.5757 C.ar    1  UNL1        0.1408
     31 F         141.7357  143.4006  155.7539 F       1  UNL1       -0.2043
@<TRIPOS>BOND
     1     2     1    1
     2     2     3    1
     3     3     4    1
     4     4    10    1
     5    10    11    1
     6    11    12    1
     7    12    13   ar
     8    13    14   ar
     9    14    15   ar
    10    15    19    1
    11    19    20    1
    12    19    21    1
    13    19    22    1
    14    15    16   ar
    15    16    17   ar
    16    17    18    1
    17     4     5    1
    18     5     6    1
    19     6     7    1
    20     7    23    1
    21    23    24   ar
    22    24    25   ar
    23    25    26    1
    24    25    27   ar
    25    27    28    1
    26    27    29   ar
    27    29    30   ar
    28    30    31    1
    29     7     2    1
    30    30    23   ar
    31    18    10    1
    32    17    12   ar
    33     1     8    1
    34     1     9    1
@<TRIPOS>MOLECULE
*****
 31 34 0 0 0
SMALL
GASTEIGER

@<TRIPOS>ATOM
      1 N         142.7137  142.0896  165.7957 N.3     1  UNL1       -0.3199
      2 C         142.3875  140.7767  165.1476 C.3     1  UNL1        0.0841
      3 C         142.6649  140.5715  163.6879 C.3     1  UNL1        0.0368
      4 C         142.3387  139.2587  163.0398 C.3     1  UNL1        0.0892
      5 C         141.7351  138.1511  163.8515 C.3     1  UNL1        0.1584
      6 O         141.4577  138.3563  165.3112 O.3     1  UNL1       -0.3490
      7 C         141.7839  139.6691  165.9593 C.3     1  UNL1        0.1538
      8 H         143.1138  142.7212  165.1018 H       1  UNL1        0.1189
      9 H         143.3869  141.9398  166.5473 H       1  UNL1        0.1189
     10 N         142.6161  139.0534  161.5800 N.3     1  UNL1       -0.2627
     11 C         143.1011  140.0983  160.6193 C.3     1  UNL1        0.1022
     12 C         143.2420  139.4579  159.2702 C.ar    1  UNL1        0.0280
     13 C         143.6812  140.0005  157.9425 C.ar    1  UNL1        0.0988
     14 N         143.7224  139.1024  156.7418 N.ar    1  UNL1       -0.2221
     15 C         143.3244  137.6618  156.8688 C.ar    1  UNL1        0.2349
     16 N         142.8852  137.1192  158.1964 N.ar    1  UNL1       -0.2266
     17 C         142.8440  138.0172  159.3971 C.ar    1  UNL1        0.0756
     18 C         142.4572  137.7673  160.8247 C.3     1  UNL1        0.1187
     19 C         143.3657  136.7637  155.6680 C.3     1  UNL1        0.4523
     20 F         143.4070  135.8657  154.4672 F       1  UNL1       -0.1632
     21 F         142.0539  136.1602  156.0742 F       1  UNL1       -0.1632
     22 F         144.6775  137.3671  155.2618 F       1  UNL1       -0.1632
     23 C         141.5065  139.8744  167.4191 C.ar    1  UNL1        0.0357
     24 C         142.5584  139.5442  168.4361 C.ar    1  UNL1        0.0323
     25 C         142.2810  139.7495  169.8959 C.ar    1  UNL1        0.1673
     26 F         143.3331  139.4193  170.9129 F       1  UNL1       -0.2018
     27 C         140.9517  140.2849  170.3386 C.ar    1  UNL1        0.1696
     28 F         140.6743  140.4901  171.7984 F       1  UNL1       -0.2017
     29 C         139.8997  140.6151  169.3216 C.ar    1  UNL1        0.0613
     30 C         140.1771  140.4098  167.8619 C.ar    1  UNL1        0.1408
     31 F         139.1251  140.7400  166.8448 F       1  UNL1       -0.2043
@<TRIPOS>BOND
     1     2     1    1
     2     2     3    1
     3     3     4    1
     4     4    10    1
     5    10    11    1
     6    11    12    1
     7    12    13   ar
     8    13    14   ar
     9    14    15   ar
    10    15    19    1
    11    19    20    1
    12    19    21    1
    13    19    22    1
    14    15    16   ar
    15    16    17   ar
    16    17    18    1
    17     4     5    1
    18     5     6    1
    19     6     7    1
    20     7    23    1
    21    23    24   ar
    22    24    25   ar
    23    25    26    1
    24    25    27   ar
    25    27    28    1
    26    27    29   ar
    27    29    30   ar
    28    30    31    1
    29     7     2    1
    30    30    23   ar
    31    18    10    1
    32    17    12   ar
    33     1     8    1
    34     1     9    1
@<TRIPOS>MOLECULE
*****
 31 34 0 0 0
SMALL
GASTEIGER

@<TRIPOS>ATOM
      1 N         142.5284  140.8690  159.5433 N.3     1  UNL1       -0.3199
      2 C         142.2288  139.9018  160.6501 C.3     1  UNL1        0.0841
      3 C         142.4399  140.3079  162.0786 C.3     1  UNL1        0.0368
      4 C         142.1404  139.3408  163.1853 C.3     1  UNL1        0.0892
      5 C         141.6297  137.9676  162.8636 C.3     1  UNL1        0.1584
      6 O         141.4185  137.5616  161.4351 O.3     1  UNL1       -0.3490
      7 C         141.7180  138.5287  160.3284 C.3     1  UNL1        0.1538
      8 H         142.8635  141.7468  159.9403 H       1  UNL1        0.1189
      9 H         141.6801  141.0417  159.0039 H       1  UNL1        0.1189
     10 N         142.3516  139.7468  164.6138 N.3     1  UNL1       -0.2627
     11 C         142.3701  138.8269  165.7984 C.3     1  UNL1        0.1022
     12 C         142.6113  139.6556  167.0252 C.ar    1  UNL1        0.0280
     13 C         142.7290  139.2912  168.4755 C.ar    1  UNL1        0.0988
     14 N         142.9771  140.3589  169.4993 N.ar    1  UNL1       -0.2221
     15 C         143.1075  141.7911  169.0729 C.ar    1  UNL1        0.2349
     16 N         142.9899  142.1555  167.6227 N.ar    1  UNL1       -0.2266
     17 C         142.7418  141.0878  166.5988 C.ar    1  UNL1        0.0756
     18 C         142.5812  141.1442  165.1085 C.3     1  UNL1        0.1187
     19 C         143.3557  142.8588  170.0969 C.3     1  UNL1        0.4523
     20 F         143.6037  143.9266  171.1208 F       1  UNL1       -0.1632
     21 F         144.8196  142.5322  170.0828 F       1  UNL1       -0.1632
     22 F         141.8918  143.1855  170.1110 F       1  UNL1       -0.1632
     23 C         141.5069  138.1226  158.8999 C.ar    1  UNL1        0.0357
     24 C         142.6464  137.5586  158.1042 C.ar    1  UNL1        0.0323
     25 C         142.4353  137.1525  156.6758 C.ar    1  UNL1        0.1673
     26 F         143.5749  136.5884  155.8801 F       1  UNL1       -0.2018
     27 C         141.0845  137.3105  156.0430 C.ar    1  UNL1        0.1696
     28 F         140.8733  136.9045  154.6145 F       1  UNL1       -0.2017
     29 C         139.9449  137.8745  156.8387 C.ar    1  UNL1        0.0613
     30 C         140.1561  138.2806  158.2671 C.ar    1  UNL1        0.1408
     31 F         139.0164  138.8447  159.0628 F       1  UNL1       -0.2043
@<TRIPOS>BOND
     1     2     1    1
     2     2     3    1
     3     3     4    1
     4     4    10    1
     5    10    11    1
     6    11    12    1
     7    12    13   ar
     8    13    14   ar
     9    14    15   ar
    10    15    19    1
    11    19    20    1
    12    19    21    1
    13    19    22    1
    14    15    16   ar
    15    16    17   ar
    16    17    18    1
    17     4     5    1
    18     5     6    1
    19     6     7    1
    20     7    23    1
    21    23    24   ar
    22    24    25   ar
    23    25    26    1
    24    25    27   ar
    25    27    28    1
    26    27    29   ar
    27    29    30   ar
    28    30    31    1
    29     7     2    1
    30    30    23   ar
    31    18    10    1
    32    17    12   ar
    33     1     8    1
    34     1     9    1
@<TRIPOS>MOLECULE
*****
 31 34 0 0 0
SMALL
GASTEIGER

@<TRIPOS>ATOM
      1 N         143.3860  142.5027  166.2435 N.3     1  UNL1       -0.3199
      2 C         142.1493  142.6827  165.4138 C.3     1  UNL1        0.0841
      3 C         142.2596  143.1668  163.9984 C.3     1  UNL1        0.0368
      4 C         141.0230  143.3468  163.1688 C.3     1  UNL1        0.0892
      5 C         139.6761  143.0426  163.7546 C.3     1  UNL1        0.1584
      6 O         139.5658  142.5585  165.1700 O.3     1  UNL1       -0.3490
      7 C         140.8024  142.3785  165.9996 C.3     1  UNL1        0.1538
      8 H         144.2057  142.7537  165.6908 H       1  UNL1        0.1189
      9 H         143.4594  141.5287  166.5375 H       1  UNL1        0.1189
     10 N         141.1333  143.8310  161.7534 N.3     1  UNL1       -0.2627
     11 C         142.2344  143.4978  160.7908 C.3     1  UNL1        0.1022
     12 C         141.9435  144.1942  159.4945 C.ar    1  UNL1        0.0280
     13 C         142.6795  144.2317  158.1881 C.ar    1  UNL1        0.0988
     14 N         142.1346  145.0328  157.0430 N.ar    1  UNL1       -0.2221
     15 C         140.8537  145.7965  157.2045 C.ar    1  UNL1        0.2349
     16 N         140.1177  145.7591  158.5109 N.ar    1  UNL1       -0.2266
     17 C         140.6626  144.9579  159.6560 C.ar    1  UNL1        0.0756
     18 C         140.1619  144.7334  161.0520 C.3     1  UNL1        0.1187
     19 C         140.3088  146.5977  156.0593 C.3     1  UNL1        0.4523
     20 F         139.7639  147.3989  154.9143 F       1  UNL1       -0.1632
     21 F         141.2452  145.8947  155.1218 F       1  UNL1       -0.1632
     22 F         139.3724  147.3007  156.9968 F       1  UNL1       -0.1632
     23 C         140.6921  141.8943  167.4150 C.ar    1  UNL1        0.0357
     24 C         140.3031  142.8477  168.5057 C.ar    1  UNL1        0.0323
     25 C         140.1928  142.3636  169.9211 C.ar    1  UNL1        0.1673
     26 F         139.8039  143.3171  171.0118 F       1  UNL1       -0.2018
     27 C         140.4714  140.9259  170.2459 C.ar    1  UNL1        0.1696
     28 F         140.3611  140.4417  171.6613 F       1  UNL1       -0.2017
     29 C         140.8603  139.9725  169.1552 C.ar    1  UNL1        0.0613
     30 C         140.9707  140.4566  167.7398 C.ar    1  UNL1        0.1408
     31 F         141.3596  139.5031  166.6491 F       1  UNL1       -0.2043
@<TRIPOS>BOND
     1     2     1    1
     2     2     3    1
     3     3     4    1
     4     4    10    1
     5    10    11    1
     6    11    12    1
     7    12    13   ar
     8    13    14   ar
     9    14    15   ar
    10    15    19    1
    11    19    20    1
    12    19    21    1
    13    19    22    1
    14    15    16   ar
    15    16    17   ar
    16    17    18    1
    17     4     5    1
    18     5     6    1
    19     6     7    1
    20     7    23    1
    21    23    24   ar
    22    24    25   ar
    23    25    26    1
    24    25    27   ar
    25    27    28    1
    26    27    29   ar
    27    29    30   ar
    28    30    31    1
    29     7     2    1
    30    30    23   ar
    31    18    10    1
    32    17    12   ar
    33     1     8    1
    34     1     9    1
@<TRIPOS>MOLECULE
*****
 31 34 0 0 0
SMALL
GASTEIGER

@<TRIPOS>ATOM
      1 N         138.9266  143.2636  159.7989 N.3     1  UNL1       -0.3199
      2 C         140.1023  143.5828  160.6742 C.3     1  UNL1        0.0841
      3 C         140.1623  143.0475  162.0741 C.3     1  UNL1        0.0368
      4 C         141.3378  143.3667  162.9494 C.3     1  UNL1        0.0892
      5 C         142.4534  144.2212  162.4247 C.3     1  UNL1        0.1584
      6 O         142.3934  144.7565  161.0248 O.3     1  UNL1       -0.3490
      7 C         141.2178  144.4373  160.1495 C.3     1  UNL1        0.1538
      8 H         138.2695  142.6768  160.3129 H       1  UNL1        0.1189
      9 H         139.2468  142.7675  158.9671 H       1  UNL1        0.1189
     10 N         141.3978  142.8314  164.3493 N.3     1  UNL1       -0.2627
     11 C         142.5925  142.8651  165.2557 C.3     1  UNL1        0.1022
     12 C         142.2067  142.2229  166.5553 C.ar    1  UNL1        0.0280
     13 C         142.9753  141.9746  167.8192 C.ar    1  UNL1        0.0988
     14 N         142.3107  141.2957  168.9799 N.ar    1  UNL1       -0.2221
     15 C         140.8775  140.8651  168.8767 C.ar    1  UNL1        0.2349
     16 N         140.1090  141.1134  167.6127 N.ar    1  UNL1       -0.2266
     17 C         140.7736  141.7923  166.4520 C.ar    1  UNL1        0.0756
     18 C         140.2737  142.1683  165.0887 C.3     1  UNL1        0.1187
     19 C         140.2129  140.1861  170.0375 C.3     1  UNL1        0.4523
     20 F         139.5483  139.5073  171.1983 F       1  UNL1       -0.1632
     21 F         141.4065  139.2920  170.1980 F       1  UNL1       -0.1632
     22 F         139.0194  141.0803  169.8771 F       1  UNL1       -0.1632
     23 C         141.1578  144.9727  158.7496 C.ar    1  UNL1        0.0357
     24 C         140.0377  145.8833  158.3422 C.ar    1  UNL1        0.0323
     25 C         139.9776  146.4186  156.9423 C.ar    1  UNL1        0.1673
     26 F         138.8574  147.3293  156.5349 F       1  UNL1       -0.2018
     27 C         141.0378  146.0433  155.9497 C.ar    1  UNL1        0.1696
     28 F         140.9778  146.5786  154.5498 F       1  UNL1       -0.2017
     29 C         142.1579  145.1327  156.3571 C.ar    1  UNL1        0.0613
     30 C         142.2179  144.5974  157.7570 C.ar    1  UNL1        0.1408
     31 F         143.3381  143.6867  158.1644 F       1  UNL1       -0.2043
@<TRIPOS>BOND
     1     2     1    1
     2     2     3    1
     3     3     4    1
     4     4    10    1
     5    10    11    1
     6    11    12    1
     7    12    13   ar
     8    13    14   ar
     9    14    15   ar
    10    15    19    1
    11    19    20    1
    12    19    21    1
    13    19    22    1
    14    15    16   ar
    15    16    17   ar
    16    17    18    1
    17     4     5    1
    18     5     6    1
    19     6     7    1
    20     7    23    1
    21    23    24   ar
    22    24    25   ar
    23    25    26    1
    24    25    27   ar
    25    27    28    1
    26    27    29   ar
    27    29    30   ar
    28    30    31    1
    29     7     2    1
    30    30    23   ar
    31    18    10    1
    32    17    12   ar
    33     1     8    1
    34     1     9    1
@<TRIPOS>MOLECULE
*****
 31 34 0 0 0
SMALL
GASTEIGER

@<TRIPOS>ATOM
      1 N         141.5939  141.7518  159.1620 N.3     1  UNL1       -0.3199
      2 C         140.4034  142.0579  160.0217 C.3     1  UNL1        0.0841
      3 C         140.3350  141.5293  161.4238 C.3     1  UNL1        0.0368
      4 C         139.1446  141.8353  162.2835 C.3     1  UNL1        0.0892
      5 C         138.0225  142.6700  161.7411 C.3     1  UNL1        0.1584
      6 O         138.0909  143.1986  160.3391 O.3     1  UNL1       -0.3490
      7 C         139.2813  142.8926  159.4794 C.3     1  UNL1        0.1538
      8 H         142.2538  141.1778  159.6869 H       1  UNL1        0.1189
      9 H         142.0464  142.6231  158.8852 H       1  UNL1        0.1189
     10 N         139.0762  141.3066  163.6856 N.3     1  UNL1       -0.2627
     11 C         138.2416  140.1510  164.1525 C.3     1  UNL1        0.1022
     12 C         138.4800  139.9709  165.6224 C.ar    1  UNL1        0.0280
     13 C         137.9297  138.9909  166.6158 C.ar    1  UNL1        0.0988
     14 N         138.3615  139.0553  168.0508 N.ar    1  UNL1       -0.2221
     15 C         139.3435  140.0996  168.4925 C.ar    1  UNL1        0.2349
     16 N         139.8937  141.0796  167.4991 N.ar    1  UNL1       -0.2266
     17 C         139.4619  141.0153  166.0641 C.ar    1  UNL1        0.0756
     18 C         139.8304  141.8407  164.8671 C.3     1  UNL1        0.1187
     19 C         139.7753  140.1639  169.9276 C.3     1  UNL1        0.4523
     20 F         140.2070  140.2283  171.3627 F       1  UNL1       -0.1632
     21 F         141.0401  139.4366  169.5797 F       1  UNL1       -0.1632
     22 F         138.5104  140.8913  170.2755 F       1  UNL1       -0.1632
     23 C         139.3497  143.4213  158.0773 C.ar    1  UNL1        0.0357
     24 C         140.1137  144.6789  157.7863 C.ar    1  UNL1        0.0323
     25 C         140.1821  145.2075  156.3843 C.ar    1  UNL1        0.1673
     26 F         140.9461  146.4652  156.0934 F       1  UNL1       -0.2018
     27 C         139.4865  144.4786  155.2731 C.ar    1  UNL1        0.1696
     28 F         139.5549  145.0072  153.8710 F       1  UNL1       -0.2017
     29 C         138.7225  143.2210  155.5640 C.ar    1  UNL1        0.0613
     30 C         138.6541  142.6923  156.9661 C.ar    1  UNL1        0.1408
     31 F         137.8900  141.4346  157.2570 F       1  UNL1       -0.2043
@<TRIPOS>BOND
     1     2     1    1
     2     2     3    1
     3     3     4    1
     4     4    10    1
     5    10    11    1
     6    11    12    1
     7    12    13   ar
     8    13    14   ar
     9    14    15   ar
    10    15    19    1
    11    19    20    1
    12    19    21    1
    13    19    22    1
    14    15    16   ar
    15    16    17   ar
    16    17    18    1
    17     4     5    1
    18     5     6    1
    19     6     7    1
    20     7    23    1
    21    23    24   ar
    22    24    25   ar
    23    25    26    1
    24    25    27   ar
    25    27    28    1
    26    27    29   ar
    27    29    30   ar
    28    30    31    1
    29     7     2    1
    30    30    23   ar
    31    18    10    1
    32    17    12   ar
    33     1     8    1
    34     1     9    1
@<TRIPOS>MOLECULE
*****
 31 34 0 0 0
SMALL
GASTEIGER

@<TRIPOS>ATOM
      1 N         144.5367  138.3923  160.8851 N.3     1  UNL1       -0.3199
      2 C         143.7299  139.6099  161.2267 C.3     1  UNL1        0.0841
      3 C         143.4939  139.9746  162.6624 C.3     1  UNL1        0.0368
      4 C         142.6871  141.1921  163.0041 C.3     1  UNL1        0.0892
      5 C         142.1163  142.0448  161.9100 C.3     1  UNL1        0.1584
      6 O         142.3523  141.6801  160.4743 O.3     1  UNL1       -0.3490
      7 C         143.1591  140.4626  160.1327 C.3     1  UNL1        0.1538
      8 H         144.8435  137.9357  161.7440 H       1  UNL1        0.1189
      9 H         145.3515  138.6673  160.3365 H       1  UNL1        0.1189
     10 N         142.4511  141.5569  164.4398 N.3     1  UNL1       -0.2627
     11 C         143.5015  141.6720  165.5044 C.3     1  UNL1        0.1022
     12 C         142.8229  142.0568  166.7856 C.ar    1  UNL1        0.0280
     13 C         143.3535  142.3114  168.1653 C.ar    1  UNL1        0.0988
     14 N         142.4142  142.6886  169.2722 N.ar    1  UNL1       -0.2221
     15 C         140.9443  142.8112  168.9994 C.ar    1  UNL1        0.2349
     16 N         140.4137  142.5567  167.6197 N.ar    1  UNL1       -0.2266
     17 C         141.3530  142.1795  166.5128 C.ar    1  UNL1        0.0756
     18 C         141.1232  141.8705  165.0630 C.3     1  UNL1        0.1187
     19 C         140.0050  143.1885  170.1065 C.3     1  UNL1        0.4523
     20 F         139.0657  143.5656  171.2135 F       1  UNL1       -0.1632
     21 F         140.5663  144.5794  170.1089 F       1  UNL1       -0.1632
     22 F         139.4436  141.7975  170.1041 F       1  UNL1       -0.1632
     23 C         143.3950  140.0979  158.6970 C.ar    1  UNL1        0.0357
     24 C         144.4898  140.7699  157.9226 C.ar    1  UNL1        0.0323
     25 C         144.7258  140.4052  156.4869 C.ar    1  UNL1        0.1673
     26 F         145.8207  141.0773  155.7125 F       1  UNL1       -0.2018
     27 C         143.8670  139.3684  155.8255 C.ar    1  UNL1        0.1696
     28 F         144.1030  139.0036  154.3898 F       1  UNL1       -0.2017
     29 C         142.7722  138.6963  156.5999 C.ar    1  UNL1        0.0613
     30 C         142.5362  139.0611  158.0356 C.ar    1  UNL1        0.1408
     31 F         141.4413  138.3889  158.8100 F       1  UNL1       -0.2043
@<TRIPOS>BOND
     1     2     1    1
     2     2     3    1
     3     3     4    1
     4     4    10    1
     5    10    11    1
     6    11    12    1
     7    12    13   ar
     8    13    14   ar
     9    14    15   ar
    10    15    19    1
    11    19    20    1
    12    19    21    1
    13    19    22    1
    14    15    16   ar
    15    16    17   ar
    16    17    18    1
    17     4     5    1
    18     5     6    1
    19     6     7    1
    20     7    23    1
    21    23    24   ar
    22    24    25   ar
    23    25    26    1
    24    25    27   ar
    25    27    28    1
    26    27    29   ar
    27    29    30   ar
    28    30    31    1
    29     7     2    1
    30    30    23   ar
    31    18    10    1
    32    17    12   ar
    33     1     8    1
    34     1     9    1
