@<TRIPOS>MOLECULE
*****
 32 36 0 0 0
SMALL
GASTEIGER

@<TRIPOS>ATOM
      1 N         139.9555  138.4126  162.8039 N.3     1  UNL1       -0.2703
      2 C         139.4148  139.4658  163.7251 C.3     1  UNL1        0.0727
      3 C         140.1343  139.7870  165.0014 C.3     1  UNL1        0.0260
      4 C         141.3944  139.0550  165.3566 C.3     1  UNL1        0.0737
      5 C         141.9352  138.0019  164.4355 C.3     1  UNL1        0.0260
      6 C         141.2157  137.6807  163.1592 C.3     1  UNL1        0.0727
      7 C         142.6585  138.4101  165.8426 C.3     1  UNL1        0.0306
      8 C         143.0215  139.0341  167.1575 C.3     1  UNL1        0.0984
      9 N         141.9817  140.0647  167.4842 N.am    1  UNL1       -0.2622
     10 C         140.9762  140.0777  166.3713 C.2     1  UNL1        0.2283
     11 O         139.7650  140.9585  166.2875 O.2     1  UNL1       -0.2746
     12 C         141.9527  140.9303  168.7088 C.2     1  UNL1        0.0345
     13 C         140.9540  140.8457  169.8248 C.2     1  UNL1        0.0479
     14 C         141.3012  141.8957  170.8382 C.2     1  UNL1        0.1744
     15 O         140.5646  142.1648  172.1169 O.2     1  UNL1       -0.2913
     16 C         142.5145  142.6293  170.3486 C.3     1  UNL1        0.0752
     17 C         142.9171  142.0326  169.0325 C.3     1  UNL1        0.0497
     18 C         139.2360  138.0914  161.5275 C.3     1  UNL1        0.1063
     19 C         139.5047  138.8978  160.2917 C.3     1  UNL1        0.1483
     20 O         139.5998  138.2176  158.9581 O.3     1  UNL1       -0.3786
     21 H         139.7760  138.8782  158.2701 H       1  UNL1        0.2108
     22 C         142.2583  140.0805  160.4304 C.3     1  UNL1        0.0306
     23 C         141.0552  140.9759  160.4587 C.ar    1  UNL1       -0.0238
     24 C         139.6784  140.3846  160.3893 C.ar    1  UNL1        0.0015
     25 C         138.4753  141.2800  160.4176 C.ar    1  UNL1       -0.0020
     26 C         138.6489  142.7667  160.5152 C.ar    1  UNL1        0.0060
     27 C         140.0257  143.3580  160.5846 C.ar    1  UNL1        0.0748
     28 C         141.2288  142.4626  160.5563 C.ar    1  UNL1        0.0233
     29 C         142.4519  143.3270  160.6393 C.3     1  UNL1        0.2352
     30 O         142.0047  144.7565  160.7188 O.3     1  UNL1       -0.4404
     31 C         140.5053  144.7757  160.6850 C.2     1  UNL1        0.3413
     32 O         139.6376  145.9980  160.7417 O.2     1  UNL1       -0.2449
@<TRIPOS>BOND
     1    22    23    1
     2    23    24   ar
     3    24    19    1
     4    19    20    1
     5    19    18    1
     6    18     1    1
     7     1     2    1
     8     2     3    1
     9     3     4    1
    10     4     5    1
    11     5     6    1
    12     4     7    1
    13     7     8    1
    14     8     9    1
    15     9    12    1
    16    12    13    2
    17    13    14    1
    18    14    15    2
    19    14    16    1
    20    16    17    1
    21     9    10   am
    22    10    11    2
    23    24    25   ar
    24    25    26   ar
    25    26    27   ar
    26    27    28   ar
    27    28    29    1
    28    29    30    1
    29    30    31    1
    30    31    32    2
    31    28    23   ar
    32     6     1    1
    33    17    12    1
    34    31    27    1
    35    10     4    1
    36    20    21    1
@<TRIPOS>MOLECULE
*****
 32 36 0 0 0
SMALL
GASTEIGER

@<TRIPOS>ATOM
      1 N         138.6853  141.3394  163.9985 N.3     1  UNL1       -0.2703
      2 C         139.1022  141.0934  162.5788 C.3     1  UNL1        0.0727
      3 C         139.5022  142.2447  161.7045 C.3     1  UNL1        0.0260
      4 C         139.4854  143.6420  162.2499 C.3     1  UNL1        0.0737
      5 C         139.0685  143.8879  163.6697 C.3     1  UNL1        0.0260
      6 C         138.6684  142.7366  164.5440 C.3     1  UNL1        0.0727
      7 C         139.5179  145.0862  162.6539 C.3     1  UNL1        0.0306
      8 C         139.9758  145.8880  161.4717 C.3     1  UNL1        0.0984
      9 N         140.2263  144.9393  160.3371 N.am    1  UNL1       -0.2622
     10 C         139.9232  143.5512  160.8180 C.2     1  UNL1        0.2283
     11 O         140.0377  142.2932  160.0092 O.2     1  UNL1       -0.2746
     12 C         140.6971  145.3131  158.9629 C.2     1  UNL1        0.0345
     13 C         139.9303  146.1198  157.9573 C.2     1  UNL1        0.0479
     14 C         140.7767  146.2511  156.7259 C.2     1  UNL1        0.1744
     15 O         140.3995  146.9799  155.4703 O.2     1  UNL1       -0.2913
     16 C         142.0666  145.5255  156.9704 C.3     1  UNL1        0.0752
     17 C         142.0173  144.9458  158.3530 C.3     1  UNL1        0.0497
     18 C         138.2852  140.1881  164.8729 C.3     1  UNL1        0.1063
     19 C         139.3073  139.5136  165.7391 C.3     1  UNL1        0.1483
     20 O         139.9288  138.2215  165.2984 O.3     1  UNL1       -0.3786
     21 H         140.5636  137.9230  165.9684 H       1  UNL1        0.2108
     22 C         141.7512  141.2467  165.8928 C.3     1  UNL1        0.0306
     23 C         140.9298  140.9977  167.1229 C.ar    1  UNL1       -0.0238
     24 C         139.7079  140.1312  167.0461 C.ar    1  UNL1        0.0015
     25 C         138.8865  139.8822  168.2763 C.ar    1  UNL1       -0.0020
     26 C         139.2870  140.4997  169.5833 C.ar    1  UNL1        0.0060
     27 C         140.5089  141.3663  169.6601 C.ar    1  UNL1        0.0748
     28 C         141.3304  141.6152  168.4299 C.ar    1  UNL1        0.0233
     29 C         142.4751  142.5071  168.8096 C.3     1  UNL1        0.2352
     30 O         142.3612  142.8093  170.2744 O.3     1  UNL1       -0.4404
     31 C         141.1461  142.1043  170.8000 C.2     1  UNL1        0.3413
     32 O         140.6543  142.1322  172.2168 O.2     1  UNL1       -0.2449
@<TRIPOS>BOND
     1    22    23    1
     2    23    24   ar
     3    24    19    1
     4    19    20    1
     5    19    18    1
     6    18     1    1
     7     1     2    1
     8     2     3    1
     9     3     4    1
    10     4     5    1
    11     5     6    1
    12     4     7    1
    13     7     8    1
    14     8     9    1
    15     9    12    1
    16    12    13    2
    17    13    14    1
    18    14    15    2
    19    14    16    1
    20    16    17    1
    21     9    10   am
    22    10    11    2
    23    24    25   ar
    24    25    26   ar
    25    26    27   ar
    26    27    28   ar
    27    28    29    1
    28    29    30    1
    29    30    31    1
    30    31    32    2
    31    28    23   ar
    32     6     1    1
    33    17    12    1
    34    31    27    1
    35    10     4    1
    36    20    21    1
@<TRIPOS>MOLECULE
*****
 32 36 0 0 0
SMALL
GASTEIGER

@<TRIPOS>ATOM
      1 N         139.2475  138.6018  162.9632 N.3     1  UNL1       -0.2703
      2 C         138.6293  139.1073  164.2329 C.3     1  UNL1        0.0727
      3 C         139.4895  139.3693  165.4334 C.3     1  UNL1        0.0260
      4 C         140.9680  139.1259  165.3641 C.3     1  UNL1        0.0737
      5 C         141.5863  138.6205  164.0944 C.3     1  UNL1        0.0260
      6 C         140.7260  138.3584  162.8939 C.3     1  UNL1        0.0727
      7 C         142.4530  138.9302  165.4444 C.3     1  UNL1        0.0306
      8 C         142.8972  139.3130  166.8251 C.3     1  UNL1        0.0984
      9 N         141.6866  139.7454  167.5982 N.am    1  UNL1       -0.2622
     10 C         140.4943  139.6297  166.6953 C.2     1  UNL1        0.2283
     11 O         139.0772  139.9599  167.0595 O.2     1  UNL1       -0.2746
     12 C         141.6710  140.2115  169.0238 C.2     1  UNL1        0.0345
     13 C         140.7330  141.2247  169.6099 C.2     1  UNL1        0.0479
     14 C         141.0729  141.3856  171.0619 C.2     1  UNL1        0.1744
     15 O         140.3854  142.2998  172.0324 O.2     1  UNL1       -0.2913
     16 C         142.2210  140.4719  171.3734 C.3     1  UNL1        0.0752
     17 C         142.5906  139.7463  170.1136 C.3     1  UNL1        0.0497
     18 C         138.3872  138.3398  161.7626 C.3     1  UNL1        0.1063
     19 C         137.8055  139.4875  160.9918 C.3     1  UNL1        0.1483
     20 O         136.4390  139.3676  160.3850 O.3     1  UNL1       -0.3786
     21 H         136.2159  140.1921  159.9251 H       1  UNL1        0.2108
     22 C         137.3156  141.8041  162.8340 C.3     1  UNL1        0.0306
     23 C         138.3454  141.9136  161.7488 C.ar    1  UNL1       -0.0238
     24 C         138.5904  140.7553  160.8277 C.ar    1  UNL1        0.0015
     25 C         139.6202  140.8648  159.7426 C.ar    1  UNL1       -0.0020
     26 C         140.4050  142.1325  159.5786 C.ar    1  UNL1        0.0060
     27 C         140.1600  143.2907  160.4996 C.ar    1  UNL1        0.0748
     28 C         139.1302  143.1812  161.5848 C.ar    1  UNL1        0.0233
     29 C         139.1084  144.4795  162.3358 C.3     1  UNL1        0.2352
     30 O         140.1248  145.3914  161.7148 O.3     1  UNL1       -0.4404
     31 C         140.7747  144.6566  160.5800 C.2     1  UNL1        0.3413
     32 O         141.8504  145.1935  159.6830 O.2     1  UNL1       -0.2449
@<TRIPOS>BOND
     1    22    23    1
     2    23    24   ar
     3    24    19    1
     4    19    20    1
     5    19    18    1
     6    18     1    1
     7     1     2    1
     8     2     3    1
     9     3     4    1
    10     4     5    1
    11     5     6    1
    12     4     7    1
    13     7     8    1
    14     8     9    1
    15     9    12    1
    16    12    13    2
    17    13    14    1
    18    14    15    2
    19    14    16    1
    20    16    17    1
    21     9    10   am
    22    10    11    2
    23    24    25   ar
    24    25    26   ar
    25    26    27   ar
    26    27    28   ar
    27    28    29    1
    28    29    30    1
    29    30    31    1
    30    31    32    2
    31    28    23   ar
    32     6     1    1
    33    17    12    1
    34    31    27    1
    35    10     4    1
    36    20    21    1
@<TRIPOS>MOLECULE
*****
 32 36 0 0 0
SMALL
GASTEIGER

@<TRIPOS>ATOM
      1 N         141.9896  138.1170  162.6941 N.3     1  UNL1       -0.2703
      2 C         142.6554  139.1416  163.5641 C.3     1  UNL1        0.0727
      3 C         141.9544  139.6579  164.7856 C.3     1  UNL1        0.0260
      4 C         140.5875  139.1497  165.1370 C.3     1  UNL1        0.0737
      5 C         139.9217  138.1252  164.2670 C.3     1  UNL1        0.0260
      6 C         140.6227  137.6089  163.0455 C.3     1  UNL1        0.0727
      7 C         139.2260  138.7373  165.6127 C.3     1  UNL1        0.0306
      8 C         138.9220  139.5019  166.8670 C.3     1  UNL1        0.0984
      9 N         140.0956  140.3869  167.1664 N.am    1  UNL1       -0.2622
     10 C         141.1249  140.1692  166.0972 C.2     1  UNL1        0.2283
     11 O         142.4577  140.8512  166.0045 O.2     1  UNL1       -0.2746
     12 C         140.2183  141.3247  168.3305 C.2     1  UNL1        0.0345
     13 C         140.1652  140.9425  169.7800 C.2     1  UNL1        0.0479
     14 C         140.3297  142.1910  170.5949 C.2     1  UNL1        0.1744
     15 O         140.3380  142.2716  172.0928 O.2     1  UNL1       -0.2913
     16 C         140.4845  143.3450  169.6491 C.3     1  UNL1        0.0752
     17 C         140.4156  142.8094  168.2496 C.3     1  UNL1        0.0497
     18 C         142.6906  137.6006  161.4726 C.3     1  UNL1        0.1063
     19 C         142.5034  138.2891  160.1532 C.3     1  UNL1        0.1483
     20 O         142.6655  137.5194  158.8760 O.3     1  UNL1       -0.3786
     21 H         142.5117  138.1091  158.1213 H       1  UNL1        0.2108
     22 C         139.6429  139.1381  159.8421 C.3     1  UNL1        0.0306
     23 C         140.7240  140.1718  159.9554 C.ar    1  UNL1       -0.0238
     24 C         142.1542  139.7473  160.1109 C.ar    1  UNL1        0.0015
     25 C         143.2353  140.7810  160.2242 C.ar    1  UNL1       -0.0020
     26 C         142.8861  142.2391  160.1819 C.ar    1  UNL1        0.0060
     27 C         141.4559  142.6636  160.0263 C.ar    1  UNL1        0.0748
     28 C         140.3749  141.6299  159.9131 C.ar    1  UNL1        0.0233
     29 C         139.0637  142.3443  159.7694 C.3     1  UNL1        0.2352
     30 O         139.3344  143.8195  159.7939 O.3     1  UNL1       -0.4404
     31 C         140.8129  144.0168  159.9527 C.2     1  UNL1        0.3413
     32 O         141.5236  145.3357  160.0251 O.2     1  UNL1       -0.2449
@<TRIPOS>BOND
     1    22    23    1
     2    23    24   ar
     3    24    19    1
     4    19    20    1
     5    19    18    1
     6    18     1    1
     7     1     2    1
     8     2     3    1
     9     3     4    1
    10     4     5    1
    11     5     6    1
    12     4     7    1
    13     7     8    1
    14     8     9    1
    15     9    12    1
    16    12    13    2
    17    13    14    1
    18    14    15    2
    19    14    16    1
    20    16    17    1
    21     9    10   am
    22    10    11    2
    23    24    25   ar
    24    25    26   ar
    25    26    27   ar
    26    27    28   ar
    27    28    29    1
    28    29    30    1
    29    30    31    1
    30    31    32    2
    31    28    23   ar
    32     6     1    1
    33    17    12    1
    34    31    27    1
    35    10     4    1
    36    20    21    1
@<TRIPOS>MOLECULE
*****
 32 36 0 0 0
SMALL
GASTEIGER

@<TRIPOS>ATOM
      1 N         138.3484  142.1678  162.4567 N.3     1  UNL1       -0.2703
      2 C         139.1353  142.8756  163.5196 C.3     1  UNL1        0.0727
      3 C         139.3617  142.2177  164.8484 C.3     1  UNL1        0.0260
      4 C         138.8012  140.8520  165.1144 C.3     1  UNL1        0.0737
      5 C         138.0143  140.1443  164.0515 C.3     1  UNL1        0.0260
      6 C         137.7879  140.8022  162.7226 C.3     1  UNL1        0.0727
      7 C         138.3049  139.4968  165.5232 C.3     1  UNL1        0.0306
      8 C         138.7606  139.2410  166.9293 C.3     1  UNL1        0.0984
      9 N         139.5386  140.4382  167.3894 N.am    1  UNL1       -0.2622
     10 C         139.5636  141.4338  166.2678 C.2     1  UNL1        0.2283
     11 O         140.2335  142.7756  166.2947 O.2     1  UNL1       -0.2746
     12 C         140.1790  140.6096  168.7349 C.2     1  UNL1        0.0345
     13 C         139.7590  141.5861  169.7933 C.2     1  UNL1        0.0479
     14 C         140.6723  141.4146  170.9708 C.2     1  UNL1        0.1744
     15 O         140.6118  142.1895  172.2537 O.2     1  UNL1       -0.2913
     16 C         141.6567  140.3322  170.6402 C.3     1  UNL1        0.0752
     17 C         141.3518  139.8347  169.2583 C.3     1  UNL1        0.0497
     18 C         138.1219  142.8257  161.1277 C.3     1  UNL1        0.1063
     19 C         139.2678  143.0110  160.1777 C.3     1  UNL1        0.1483
     20 O         139.5232  144.3556  159.5637 O.3     1  UNL1       -0.3786
     21 H         140.2950  144.3025  158.9786 H       1  UNL1        0.2108
     22 C         141.9842  142.7929  161.4320 C.3     1  UNL1        0.0306
     23 C         141.5165  141.7426  160.4686 C.ar    1  UNL1       -0.0238
     24 C         140.1583  141.8517  159.8415 C.ar    1  UNL1        0.0015
     25 C         139.6906  140.8014  158.8781 C.ar    1  UNL1       -0.0020
     26 C         140.5810  139.6421  158.5419 C.ar    1  UNL1        0.0060
     27 C         141.9392  139.5331  159.1690 C.ar    1  UNL1        0.0748
     28 C         142.4069  140.5833  160.1324 C.ar    1  UNL1        0.0233
     29 C         143.7862  140.2114  160.5898 C.3     1  UNL1        0.2352
     30 O         144.1710  138.9313  159.9092 O.3     1  UNL1       -0.4404
     31 C         143.0294  138.5121  159.0311 C.2     1  UNL1        0.3413
     32 O         142.9857  137.2869  158.1668 O.2     1  UNL1       -0.2449
@<TRIPOS>BOND
     1    22    23    1
     2    23    24   ar
     3    24    19    1
     4    19    20    1
     5    19    18    1
     6    18     1    1
     7     1     2    1
     8     2     3    1
     9     3     4    1
    10     4     5    1
    11     5     6    1
    12     4     7    1
    13     7     8    1
    14     8     9    1
    15     9    12    1
    16    12    13    2
    17    13    14    1
    18    14    15    2
    19    14    16    1
    20    16    17    1
    21     9    10   am
    22    10    11    2
    23    24    25   ar
    24    25    26   ar
    25    26    27   ar
    26    27    28   ar
    27    28    29    1
    28    29    30    1
    29    30    31    1
    30    31    32    2
    31    28    23   ar
    32     6     1    1
    33    17    12    1
    34    31    27    1
    35    10     4    1
    36    20    21    1
@<TRIPOS>MOLECULE
*****
 32 36 0 0 0
SMALL
GASTEIGER

@<TRIPOS>ATOM
      1 N         143.0375  140.4168  163.9925 N.3     1  UNL1       -0.2703
      2 C         141.9915  139.4817  163.4621 C.3     1  UNL1        0.0727
      3 C         141.9281  139.1826  161.9937 C.3     1  UNL1        0.0260
      4 C         142.9107  139.8185  161.0556 C.3     1  UNL1        0.0737
      5 C         143.9567  140.7537  161.5859 C.3     1  UNL1        0.0260
      6 C         144.0201  141.0528  163.0544 C.3     1  UNL1        0.0727
      7 C         143.8210  140.3766  160.0020 C.3     1  UNL1        0.0306
      8 C         143.3987  139.8117  158.6780 C.3     1  UNL1        0.0984
      9 N         142.2275  138.9046  158.9134 N.am    1  UNL1       -0.2622
     10 C         141.9259  138.9088  160.3828 C.2     1  UNL1        0.2283
     11 O         140.8316  138.1386  161.0605 O.2     1  UNL1       -0.2746
     12 C         141.4877  138.1294  157.8638 C.2     1  UNL1        0.0345
     13 C         140.0253  138.2432  157.5505 C.2     1  UNL1        0.0479
     14 C         139.7142  137.2884  156.4362 C.2     1  UNL1        0.1744
     15 O         138.3691  137.0750  155.8076 O.2     1  UNL1       -0.2913
     16 C         140.9845  136.5844  156.0608 C.3     1  UNL1        0.0752
     17 C         142.0806  137.1042  156.9432 C.3     1  UNL1        0.0497
     18 C         143.1010  140.7160  165.4610 C.3     1  UNL1        0.1063
     19 C         142.4567  141.9579  166.0020 C.3     1  UNL1        0.1483
     20 O         142.5284  142.2620  167.4690 O.3     1  UNL1       -0.3786
     21 H         142.0650  143.0948  167.6497 H       1  UNL1        0.2108
     22 C         139.5236  141.6028  165.4809 C.3     1  UNL1        0.0306
     23 C         140.2740  142.7181  164.8153 C.ar    1  UNL1       -0.0238
     24 C         141.7405  142.8956  165.0758 C.ar    1  UNL1        0.0015
     25 C         142.4908  144.0109  164.4101 C.ar    1  UNL1       -0.0020
     26 C         141.7747  144.9487  163.4840 C.ar    1  UNL1        0.0060
     27 C         140.3083  144.7711  163.2235 C.ar    1  UNL1        0.0748
     28 C         139.5579  143.6558  163.8891 C.ar    1  UNL1        0.0233
     29 C         138.1276  143.7287  163.4432 C.3     1  UNL1        0.2352
     30 O         137.9939  144.8889  162.5020 O.3     1  UNL1       -0.4404
     31 C         139.3416  145.5332  162.3662 C.2     1  UNL1        0.3413
     32 O         139.6659  146.7295  161.5214 O.2     1  UNL1       -0.2449
@<TRIPOS>BOND
     1    22    23    1
     2    23    24   ar
     3    24    19    1
     4    19    20    1
     5    19    18    1
     6    18     1    1
     7     1     2    1
     8     2     3    1
     9     3     4    1
    10     4     5    1
    11     5     6    1
    12     4     7    1
    13     7     8    1
    14     8     9    1
    15     9    12    1
    16    12    13    2
    17    13    14    1
    18    14    15    2
    19    14    16    1
    20    16    17    1
    21     9    10   am
    22    10    11    2
    23    24    25   ar
    24    25    26   ar
    25    26    27   ar
    26    27    28   ar
    27    28    29    1
    28    29    30    1
    29    30    31    1
    30    31    32    2
    31    28    23   ar
    32     6     1    1
    33    17    12    1
    34    31    27    1
    35    10     4    1
    36    20    21    1
@<TRIPOS>MOLECULE
*****
 32 36 0 0 0
SMALL
GASTEIGER

@<TRIPOS>ATOM
      1 N         142.4737  138.1190  162.6190 N.3     1  UNL1       -0.2703
      2 C         143.0874  139.1416  163.5288 C.3     1  UNL1        0.0727
      3 C         142.3157  139.6559  164.7077 C.3     1  UNL1        0.0260
      4 C         140.9304  139.1477  164.9769 C.3     1  UNL1        0.0737
      5 C         140.3167  138.1251  164.0672 C.3     1  UNL1        0.0260
      6 C         141.0883  137.6108  162.8882 C.3     1  UNL1        0.0727
      7 C         139.5431  138.7350  165.3707 C.3     1  UNL1        0.0306
      8 C         139.1658  139.4973  166.6063 C.3     1  UNL1        0.0984
      9 N         140.3200  140.3811  166.9762 N.am    1  UNL1       -0.2622
     10 C         141.4105  140.1651  165.9692 C.2     1  UNL1        0.2283
     11 O         142.7466  140.8466  165.9565 O.2     1  UNL1       -0.2746
     12 C         140.3741  141.3167  168.1473 C.2     1  UNL1        0.0345
     13 C         140.3088  140.9237  169.5934 C.2     1  UNL1        0.0479
     14 C         140.3974  142.1737  170.4179 C.2     1  UNL1        0.1744
     15 O         140.3706  142.2456  171.9159 O.2     1  UNL1       -0.2913
     16 C         140.5175  143.3392  169.4813 C.3     1  UNL1        0.0752
     17 C         140.5031  142.8095  168.0780 C.3     1  UNL1        0.0497
     18 C         143.2454  137.6046  161.4400 C.3     1  UNL1        0.1063
     19 C         143.3764  138.4454  160.2047 C.3     1  UNL1        0.1483
     20 O         144.4892  139.4448  160.0923 O.3     1  UNL1       -0.3786
     21 H         144.4296  139.9004  159.2380 H       1  UNL1        0.2108
     22 C         140.9391  140.1906  160.0853 C.3     1  UNL1        0.0306
     23 C         141.1759  139.1593  159.0221 C.ar    1  UNL1       -0.0238
     24 C         142.3945  138.2867  159.0818 C.ar    1  UNL1        0.0015
     25 C         142.6313  137.2553  158.0187 C.ar    1  UNL1       -0.0020
     26 C         141.6495  137.0966  156.8958 C.ar    1  UNL1        0.0060
     27 C         140.4309  137.9692  156.8361 C.ar    1  UNL1        0.0748
     28 C         140.1941  139.0005  157.8993 C.ar    1  UNL1        0.0233
     29 C         138.9127  139.7112  157.5784 C.3     1  UNL1        0.2352
     30 O         138.3575  139.1191  156.3170 O.3     1  UNL1       -0.4404
     31 C         139.2959  138.0425  155.8582 C.2     1  UNL1        0.3413
     32 O         139.1285  137.1890  154.6361 O.2     1  UNL1       -0.2449
@<TRIPOS>BOND
     1    22    23    1
     2    23    24   ar
     3    24    19    1
     4    19    20    1
     5    19    18    1
     6    18     1    1
     7     1     2    1
     8     2     3    1
     9     3     4    1
    10     4     5    1
    11     5     6    1
    12     4     7    1
    13     7     8    1
    14     8     9    1
    15     9    12    1
    16    12    13    2
    17    13    14    1
    18    14    15    2
    19    14    16    1
    20    16    17    1
    21     9    10   am
    22    10    11    2
    23    24    25   ar
    24    25    26   ar
    25    26    27   ar
    26    27    28   ar
    27    28    29    1
    28    29    30    1
    29    30    31    1
    30    31    32    2
    31    28    23   ar
    32     6     1    1
    33    17    12    1
    34    31    27    1
    35    10     4    1
    36    20    21    1
@<TRIPOS>MOLECULE
*****
 32 36 0 0 0
SMALL
GASTEIGER

@<TRIPOS>ATOM
      1 N         139.5650  137.6554  164.0408 N.3     1  UNL1       -0.2703
      2 C         138.9178  137.9006  162.7101 C.3     1  UNL1        0.0727
      3 C         139.7641  138.0522  161.4810 C.3     1  UNL1        0.0260
      4 C         141.2578  137.9586  161.5827 C.3     1  UNL1        0.0737
      5 C         141.9050  137.7135  162.9134 C.3     1  UNL1        0.0260
      6 C         141.0587  137.5619  164.1425 C.3     1  UNL1        0.0727
      7 C         142.7552  137.8895  161.5293 C.3     1  UNL1        0.0306
      8 C         143.1782  138.0942  160.1047 C.3     1  UNL1        0.0984
      9 N         141.9421  138.2897  159.2777 N.am    1  UNL1       -0.2622
     10 C         140.7553  138.2060  160.1911 C.2     1  UNL1        0.2283
     11 O         139.3182  138.3451  159.7844 O.2     1  UNL1       -0.2746
     12 C         141.9003  138.5273  157.7973 C.2     1  UNL1        0.0345
     13 C         141.2608  139.6970  157.1098 C.2     1  UNL1        0.0479
     14 C         141.4559  139.5296  155.6320 C.2     1  UNL1        0.1744
     15 O         140.9753  140.4702  154.5670 O.2     1  UNL1       -0.2913
     16 C         142.2160  138.2563  155.4061 C.3     1  UNL1        0.0752
     17 C         142.4907  137.6369  156.7444 C.3     1  UNL1        0.0497
     18 C         138.7187  137.5038  165.2700 C.3     1  UNL1        0.1063
     19 C         138.3146  138.7155  166.0565 C.3     1  UNL1        0.1483
     20 O         137.6298  138.5555  167.3814 O.3     1  UNL1       -0.3786
     21 H         137.4388  139.4304  167.7543 H       1  UNL1        0.2108
     22 C         140.8350  140.1452  166.8332 C.3     1  UNL1        0.0306
     23 C         139.8554  140.8019  165.9063 C.ar    1  UNL1       -0.0238
     24 C         138.5952  140.0871  165.5180 C.ar    1  UNL1        0.0015
     25 C         137.6156  140.7439  164.5911 C.ar    1  UNL1       -0.0020
     26 C         137.8962  142.1154  164.0527 C.ar    1  UNL1        0.0060
     27 C         139.1564  142.8303  164.4410 C.ar    1  UNL1        0.0748
     28 C         140.1360  142.1735  165.3679 C.ar    1  UNL1        0.0233
     29 C         141.2848  143.1163  165.5718 C.3     1  UNL1        0.2352
     30 O         141.0152  144.3556  164.7711 O.3     1  UNL1       -0.4404
     31 C         139.6997  144.1789  164.0722 C.2     1  UNL1        0.3413
     32 O         139.0429  145.1757  163.1639 O.2     1  UNL1       -0.2449
@<TRIPOS>BOND
     1    22    23    1
     2    23    24   ar
     3    24    19    1
     4    19    20    1
     5    19    18    1
     6    18     1    1
     7     1     2    1
     8     2     3    1
     9     3     4    1
    10     4     5    1
    11     5     6    1
    12     4     7    1
    13     7     8    1
    14     8     9    1
    15     9    12    1
    16    12    13    2
    17    13    14    1
    18    14    15    2
    19    14    16    1
    20    16    17    1
    21     9    10   am
    22    10    11    2
    23    24    25   ar
    24    25    26   ar
    25    26    27   ar
    26    27    28   ar
    27    28    29    1
    28    29    30    1
    29    30    31    1
    30    31    32    2
    31    28    23   ar
    32     6     1    1
    33    17    12    1
    34    31    27    1
    35    10     4    1
    36    20    21    1
@<TRIPOS>MOLECULE
*****
 32 36 0 0 0
SMALL
GASTEIGER

@<TRIPOS>ATOM
      1 N         141.5565  138.1021  163.0006 N.3     1  UNL1       -0.2703
      2 C         142.5622  138.7798  163.8833 C.3     1  UNL1        0.0727
      3 C         142.1368  139.3528  165.2026 C.3     1  UNL1        0.0260
      4 C         140.7056  139.2481  165.6393 C.3     1  UNL1        0.0737
      5 C         139.6998  138.5703  164.7566 C.3     1  UNL1        0.0260
      6 C         140.1253  137.9973  163.4373 C.3     1  UNL1        0.0727
      7 C         139.3172  139.2194  166.2065 C.3     1  UNL1        0.0306
      8 C         139.3474  139.9040  167.5409 C.3     1  UNL1        0.0984
      9 N         140.7544  140.3558  167.7983 N.am    1  UNL1       -0.2622
     10 C         141.5938  139.9504  166.6231 C.2     1  UNL1        0.2283
     11 O         143.0634  140.2030  166.4603 O.2     1  UNL1       -0.2746
     12 C         141.2372  141.0849  169.0170 C.2     1  UNL1        0.0345
     13 C         142.1339  142.2873  169.0275 C.2     1  UNL1        0.0479
     14 C         142.3590  142.6852  170.4561 C.2     1  UNL1        0.1744
     15 O         143.1949  143.8374  170.9293 O.2     1  UNL1       -0.2913
     16 C         141.6015  141.7287  171.3286 C.3     1  UNL1        0.0752
     17 C         140.9082  140.7396  170.4391 C.3     1  UNL1        0.0497
     18 C         141.9819  137.5291  161.6813 C.3     1  UNL1        0.1063
     19 C         142.0006  138.3966  160.4578 C.3     1  UNL1        0.1483
     20 O         142.4013  137.8172  159.1335 O.3     1  UNL1       -0.3786
     21 H         142.3597  138.5070  158.4529 H       1  UNL1        0.2108
     22 C         144.1020  140.4689  160.9960 C.3     1  UNL1        0.0306
     23 C         142.6692  140.8798  160.8277 C.ar    1  UNL1       -0.0238
     24 C         141.6185  139.8437  160.5585 C.ar    1  UNL1        0.0015
     25 C         140.1857  140.2546  160.3902 C.ar    1  UNL1       -0.0020
     26 C         139.8037  141.7016  160.4909 C.ar    1  UNL1        0.0060
     27 C         140.8544  142.7377  160.7600 C.ar    1  UNL1        0.0748
     28 C         142.2871  142.3268  160.9284 C.ar    1  UNL1        0.0233
     29 C         143.0970  143.5633  161.1835 C.3     1  UNL1        0.2352
     30 O         142.1648  144.7384  161.1728 O.3     1  UNL1       -0.4404
     31 C         140.7788  144.2281  160.9111 C.2     1  UNL1        0.3413
     32 O         139.5354  145.0619  160.8170 O.2     1  UNL1       -0.2449
@<TRIPOS>BOND
     1    22    23    1
     2    23    24   ar
     3    24    19    1
     4    19    20    1
     5    19    18    1
     6    18     1    1
     7     1     2    1
     8     2     3    1
     9     3     4    1
    10     4     5    1
    11     5     6    1
    12     4     7    1
    13     7     8    1
    14     8     9    1
    15     9    12    1
    16    12    13    2
    17    13    14    1
    18    14    15    2
    19    14    16    1
    20    16    17    1
    21     9    10   am
    22    10    11    2
    23    24    25   ar
    24    25    26   ar
    25    26    27   ar
    26    27    28   ar
    27    28    29    1
    28    29    30    1
    29    30    31    1
    30    31    32    2
    31    28    23   ar
    32     6     1    1
    33    17    12    1
    34    31    27    1
    35    10     4    1
    36    20    21    1
