@<TRIPOS>MOLECULE
*****
 32 35 0 0 0
SMALL
GASTEIGER

@<TRIPOS>ATOM
      1 C         137.8026  138.8215  161.6887 C.3     1  UNL1        0.0722
      2 N         138.2357  139.0904  163.0994 N.3     1  UNL1       -0.2727
      3 C         138.9678  138.0345  163.8734 C.3     1  UNL1        0.0725
      4 C         139.4009  138.3035  165.2841 C.3     1  UNL1        0.0234
      5 C         139.1018  139.6284  165.9208 C.3     1  UNL1        0.0464
      6 C         138.3697  140.6841  165.1468 C.3     1  UNL1        0.0234
      7 C         137.9366  140.4152  163.7361 C.3     1  UNL1        0.0725
      8 C         139.5349  139.8973  167.3315 C.ar    1  UNL1        0.1003
      9 N         138.8093  139.4707  168.5731 N.ar    1  UNL1       -0.0814
     10 O         139.5957  139.9498  169.7572 O.2     1  UNL1       -0.3536
     11 C         140.8072  140.6725  169.2475 C.ar    1  UNL1        0.1787
     12 C         141.9397  141.3560  169.9547 C.ar    1  UNL1        0.0698
     13 C         143.0347  142.0070  169.1628 C.ar    1  UNL1        0.1433
     14 F         144.1673  142.6904  169.8701 F       1  UNL1       -0.2041
     15 C         142.9972  141.9745  167.6636 C.ar    1  UNL1        0.0299
     16 C         141.8647  141.2911  166.9564 C.ar    1  UNL1        0.0067
     17 C         140.7697  140.6401  167.7483 C.ar    1  UNL1        0.0540
     18 C         137.3942  139.9586  160.7998 C.3     1  UNL1        0.0212
     19 C         138.3784  140.5438  159.8307 C.3     1  UNL1        0.0488
     20 C         138.7140  142.0045  159.8928 C.3     1  UNL1        0.2054
     21 O         137.9654  142.9069  160.8284 O.3     1  UNL1       -0.4755
     22 C         140.7032  143.5568  163.6270 C.ar    1  UNL1        0.0564
     23 C         139.8810  144.2512  164.6719 C.ar    1  UNL1        0.0047
     24 C         138.4204  144.4976  164.4356 C.ar    1  UNL1        0.0033
     25 C         137.7819  144.0495  163.1545 C.ar    1  UNL1        0.0369
     26 C         138.6040  143.3550  162.1096 C.ar    1  UNL1        0.1387
     27 C         140.0646  143.1087  162.3458 C.ar    1  UNL1        0.0414
     28 C         144.2194  141.7235  163.7857 C.3     1  UNL1        0.1109
     29 N         142.7587  141.9697  163.5494 N.am    1  UNL1       -0.2992
     30 C         142.1638  143.3105  163.8633 C.2     1  UNL1        0.2460
     31 O         143.0295  144.4050  164.4136 O.2     1  UNL1       -0.2701
     32 H         142.1905  141.2514  163.1882 H       1  UNL1        0.1498
@<TRIPOS>BOND
     1    28    29    1
     2    29    30   am
     3    30    31    2
     4    30    22    1
     5    22    23   ar
     6    23    24   ar
     7    24    25   ar
     8    25    26   ar
     9    26    21    1
    10    21    20    1
    11    20    19    1
    12    19    18    1
    13    18     1    1
    14     1     2    1
    15     2     3    1
    16     3     4    1
    17     4     5    1
    18     5     8    1
    19     8     9   ar
    20     9    10   ar
    21    10    11   ar
    22    11    12   ar
    23    12    13   ar
    24    13    14    1
    25    13    15   ar
    26    15    16   ar
    27    16    17   ar
    28     5     6    1
    29     6     7    1
    30    26    27   ar
    31    27    22   ar
    32     7     2    1
    33    17     8   ar
    34    17    11   ar
    35    29    32    1
@<TRIPOS>MOLECULE
*****
 32 35 0 0 0
SMALL
GASTEIGER

@<TRIPOS>ATOM
      1 C         137.4587  140.8552  162.2930 C.3     1  UNL1        0.0722
      2 N         138.0671  140.7522  163.6602 N.3     1  UNL1       -0.2727
      3 C         138.0505  139.4428  164.3918 C.3     1  UNL1        0.0725
      4 C         138.6589  139.3398  165.7590 C.3     1  UNL1        0.0234
      5 C         139.2841  140.5463  166.3946 C.3     1  UNL1        0.0464
      6 C         139.3007  141.8555  165.6630 C.3     1  UNL1        0.0234
      7 C         138.6922  141.9585  164.2958 C.3     1  UNL1        0.0725
      8 C         139.8925  140.4433  167.7618 C.ar    1  UNL1        0.1003
      9 N         139.3215  139.6900  168.9265 N.ar    1  UNL1       -0.0814
     10 O         140.2549  139.8567  170.0888 O.2     1  UNL1       -0.3536
     11 C         141.4029  140.7129  169.6424 C.ar    1  UNL1        0.1787
     12 C         142.6231  141.2092  170.3597 C.ar    1  UNL1        0.0698
     13 C         143.6194  142.0681  169.6388 C.ar    1  UNL1        0.1433
     14 F         144.8397  142.5645  170.3561 F       1  UNL1       -0.2041
     15 C         143.3954  142.4306  168.2006 C.ar    1  UNL1        0.0299
     16 C         142.1752  141.9343  167.4833 C.ar    1  UNL1        0.0067
     17 C         141.1789  141.0754  168.2042 C.ar    1  UNL1        0.0540
     18 C         138.1730  140.2750  161.1085 C.3     1  UNL1        0.0212
     19 C         138.3432  138.7894  160.9892 C.3     1  UNL1        0.0488
     20 C         139.7190  138.1941  160.9360 C.3     1  UNL1        0.2054
     21 O         140.2555  137.4388  162.1157 O.3     1  UNL1       -0.4755
     22 C         142.3111  140.2881  163.9612 C.ar    1  UNL1        0.0564
     23 C         142.7848  139.5521  165.1794 C.ar    1  UNL1        0.0047
     24 C         142.4153  138.1117  165.3763 C.ar    1  UNL1        0.0033
     25 C         141.5723  137.4073  164.3551 C.ar    1  UNL1        0.0369
     26 C         141.0986  138.1433  163.1369 C.ar    1  UNL1        0.1387
     27 C         141.4680  139.5837  162.9400 C.ar    1  UNL1        0.0414
     28 C         144.2690  143.7291  164.2382 C.3     1  UNL1        0.1109
     29 N         143.8996  142.2886  164.4351 N.am    1  UNL1       -0.2992
     30 C         142.6805  141.7285  163.7643 C.2     1  UNL1        0.2460
     31 O         141.8307  142.6088  162.8965 O.2     1  UNL1       -0.2701
     32 H         144.4574  141.7109  165.0047 H       1  UNL1        0.1498
@<TRIPOS>BOND
     1    28    29    1
     2    29    30   am
     3    30    31    2
     4    30    22    1
     5    22    23   ar
     6    23    24   ar
     7    24    25   ar
     8    25    26   ar
     9    26    21    1
    10    21    20    1
    11    20    19    1
    12    19    18    1
    13    18     1    1
    14     1     2    1
    15     2     3    1
    16     3     4    1
    17     4     5    1
    18     5     8    1
    19     8     9   ar
    20     9    10   ar
    21    10    11   ar
    22    11    12   ar
    23    12    13   ar
    24    13    14    1
    25    13    15   ar
    26    15    16   ar
    27    16    17   ar
    28     5     6    1
    29     6     7    1
    30    26    27   ar
    31    27    22   ar
    32     7     2    1
    33    17     8   ar
    34    17    11   ar
    35    29    32    1
@<TRIPOS>MOLECULE
*****
 32 35 0 0 0
SMALL
GASTEIGER

@<TRIPOS>ATOM
      1 C         144.9403  141.5716  162.1285 C.3     1  UNL1        0.0722
      2 N         144.3821  141.6566  163.5182 N.3     1  UNL1       -0.2727
      3 C         144.4944  142.9350  164.2947 C.3     1  UNL1        0.0725
      4 C         143.9362  143.0200  165.6844 C.3     1  UNL1        0.0234
      5 C         143.2658  141.8264  166.2976 C.3     1  UNL1        0.0464
      6 C         143.1535  140.5480  165.5211 C.3     1  UNL1        0.0234
      7 C         143.7117  140.4631  164.1314 C.3     1  UNL1        0.0725
      8 C         142.7076  141.9113  167.6873 C.ar    1  UNL1        0.1003
      9 N         143.3335  142.6286  168.8465 N.ar    1  UNL1       -0.0814
     10 O         142.4383  142.4545  170.0374 O.2     1  UNL1       -0.3536
     11 C         141.2591  141.6296  169.6142 C.ar    1  UNL1        0.1787
     12 C         140.0553  141.1407  170.3638 C.ar    1  UNL1        0.0698
     13 C         139.0180  140.3162  169.6609 C.ar    1  UNL1        0.1433
     14 F         137.8141  139.8273  170.4105 F       1  UNL1       -0.2041
     15 C         139.1845  139.9805  168.2084 C.ar    1  UNL1        0.0299
     16 C         140.3882  140.4693  167.4589 C.ar    1  UNL1        0.0067
     17 C         141.4255  141.2939  168.1618 C.ar    1  UNL1        0.0540
     18 C         144.6171  142.6377  161.1240 C.3     1  UNL1        0.0212
     19 C         143.2903  142.6314  160.4242 C.3     1  UNL1        0.0488
     20 C         142.2935  143.7186  160.6968 C.3     1  UNL1        0.2054
     21 O         142.1918  144.3161  162.0689 O.3     1  UNL1       -0.4755
     22 C         139.8903  141.6995  163.9680 C.ar    1  UNL1        0.0564
     23 C         139.3660  142.5453  165.0903 C.ar    1  UNL1        0.0047
     24 C         139.7836  143.9814  165.2055 C.ar    1  UNL1        0.0033
     25 C         140.7255  144.5717  164.1983 C.ar    1  UNL1        0.0369
     26 C         141.2499  143.7258  163.0760 C.ar    1  UNL1        0.1387
     27 C         140.8323  142.2897  162.9609 C.ar    1  UNL1        0.0414
     28 C         139.8564  137.8783  162.8968 C.3     1  UNL1        0.1109
     29 N         140.2741  139.3144  163.0119 N.am    1  UNL1       -0.2992
     30 C         139.4727  140.2634  163.8528 C.2     1  UNL1        0.2460
     31 O         138.2537  139.7763  164.5787 O.2     1  UNL1       -0.2701
     32 H         141.0742  139.6341  162.5355 H       1  UNL1        0.1498
@<TRIPOS>BOND
     1    28    29    1
     2    29    30   am
     3    30    31    2
     4    30    22    1
     5    22    23   ar
     6    23    24   ar
     7    24    25   ar
     8    25    26   ar
     9    26    21    1
    10    21    20    1
    11    20    19    1
    12    19    18    1
    13    18     1    1
    14     1     2    1
    15     2     3    1
    16     3     4    1
    17     4     5    1
    18     5     8    1
    19     8     9   ar
    20     9    10   ar
    21    10    11   ar
    22    11    12   ar
    23    12    13   ar
    24    13    14    1
    25    13    15   ar
    26    15    16   ar
    27    16    17   ar
    28     5     6    1
    29     6     7    1
    30    26    27   ar
    31    27    22   ar
    32     7     2    1
    33    17     8   ar
    34    17    11   ar
    35    29    32    1
@<TRIPOS>MOLECULE
*****
 32 35 0 0 0
SMALL
GASTEIGER

@<TRIPOS>ATOM
      1 C         144.3774  140.0769  162.0650 C.3     1  UNL1        0.0722
      2 N         143.9197  140.0539  163.4933 N.3     1  UNL1       -0.2727
      3 C         143.5079  141.3280  164.1695 C.3     1  UNL1        0.0725
      4 C         143.0502  141.3050  165.5978 C.3     1  UNL1        0.0234
      5 C         143.0042  140.0079  166.3499 C.3     1  UNL1        0.0464
      6 C         143.4160  138.7340  165.6737 C.3     1  UNL1        0.0234
      7 C         143.8738  138.7569  164.2454 C.3     1  UNL1        0.0725
      8 C         142.5465  139.9850  167.7782 C.ar    1  UNL1        0.1003
      9 N         142.8659  138.9241  168.7894 N.ar    1  UNL1       -0.0814
     10 O         142.2058  139.3024  170.0822 O.2     1  UNL1       -0.3536
     11 C         141.4784  140.5970  169.8699 C.ar    1  UNL1        0.1787
     12 C         140.6516  141.4461  170.7892 C.ar    1  UNL1        0.0698
     13 C         140.0354  142.7172  170.2846 C.ar    1  UNL1        0.1433
     14 F         139.2085  143.5664  171.2039 F       1  UNL1       -0.2041
     15 C         140.2460  143.1390  168.8606 C.ar    1  UNL1        0.0299
     16 C         141.0728  142.2898  167.9413 C.ar    1  UNL1        0.0067
     17 C         141.6890  141.0188  168.4459 C.ar    1  UNL1        0.0540
     18 C         143.4715  139.5772  160.9790 C.3     1  UNL1        0.0212
     19 C         142.8665  138.2081  161.0777 C.3     1  UNL1        0.0488
     20 C         141.3995  138.0543  161.3501 C.3     1  UNL1        0.2054
     21 O         140.9335  137.5399  162.6799 O.3     1  UNL1       -0.4755
     22 C         139.5314  140.8691  164.3231 C.ar    1  UNL1        0.0564
     23 C         139.0289  140.3471  165.6365 C.ar    1  UNL1        0.0047
     24 C         139.1613  138.8894  165.9643 C.ar    1  UNL1        0.0033
     25 C         139.7962  137.9536  164.9788 C.ar    1  UNL1        0.0369
     26 C         140.2987  138.4756  163.6654 C.ar    1  UNL1        0.1387
     27 C         140.1663  139.9333  163.3375 C.ar    1  UNL1        0.0414
     28 C         139.1145  144.7904  164.7696 C.3     1  UNL1        0.1109
     29 N         139.2469  143.3327  165.0975 N.am    1  UNL1       -0.2992
     30 C         139.3990  142.3268  163.9952 C.2     1  UNL1        0.2460
     31 O         139.4186  142.7786  162.5649 O.2     1  UNL1       -0.2701
     32 H         139.2340  143.0362  166.0362 H       1  UNL1        0.1498
@<TRIPOS>BOND
     1    28    29    1
     2    29    30   am
     3    30    31    2
     4    30    22    1
     5    22    23   ar
     6    23    24   ar
     7    24    25   ar
     8    25    26   ar
     9    26    21    1
    10    21    20    1
    11    20    19    1
    12    19    18    1
    13    18     1    1
    14     1     2    1
    15     2     3    1
    16     3     4    1
    17     4     5    1
    18     5     8    1
    19     8     9   ar
    20     9    10   ar
    21    10    11   ar
    22    11    12   ar
    23    12    13   ar
    24    13    14    1
    25    13    15   ar
    26    15    16   ar
    27    16    17   ar
    28     5     6    1
    29     6     7    1
    30    26    27   ar
    31    27    22   ar
    32     7     2    1
    33    17     8   ar
    34    17    11   ar
    35    29    32    1
@<TRIPOS>MOLECULE
*****
 32 35 0 0 0
SMALL
GASTEIGER

@<TRIPOS>ATOM
      1 C         141.4771  144.6338  161.0686 C.3     1  UNL1        0.0722
      2 N         141.7089  143.6779  162.2011 N.3     1  UNL1       -0.2727
      3 C         141.9894  142.2321  161.9167 C.3     1  UNL1        0.0725
      4 C         142.2213  141.2762  163.0492 C.3     1  UNL1        0.0234
      5 C         142.1726  141.7662  164.4662 C.3     1  UNL1        0.0464
      6 C         141.8921  143.2120  164.7505 C.3     1  UNL1        0.0234
      7 C         141.6602  144.1678  163.6180 C.3     1  UNL1        0.0725
      8 C         142.4044  140.8103  165.5987 C.ar    1  UNL1        0.1003
      9 N         143.3938  139.6830  165.6124 N.ar    1  UNL1       -0.0814
     10 O         143.2884  138.9899  166.9385 O.2     1  UNL1       -0.3536
     11 C         142.2339  139.6890  167.7444 C.ar    1  UNL1        0.1787
     12 C         141.7007  139.4464  169.1252 C.ar    1  UNL1        0.0698
     13 C         140.6211  140.3289  169.6780 C.ar    1  UNL1        0.1433
     14 F         140.0877  140.0864  171.0589 F       1  UNL1       -0.2041
     15 C         140.0747  141.4540  168.8499 C.ar    1  UNL1        0.0299
     16 C         140.6080  141.6966  167.4691 C.ar    1  UNL1        0.0067
     17 C         141.6876  140.8141  166.9163 C.ar    1  UNL1        0.0540
     18 C         141.4770  144.1348  159.6540 C.3     1  UNL1        0.0212
     19 C         140.1819  143.7886  158.9809 C.3     1  UNL1        0.0488
     20 C         139.2659  142.7719  159.5951 C.3     1  UNL1        0.2054
     21 O         138.1021  143.2181  160.4297 O.3     1  UNL1       -0.4755
     22 C         138.3866  141.5193  164.0051 C.ar    1  UNL1        0.0564
     23 C         138.2133  142.7108  164.8996 C.ar    1  UNL1        0.0047
     24 C         138.0029  144.0714  164.3042 C.ar    1  UNL1        0.0033
     25 C         137.9658  144.2405  162.8142 C.ar    1  UNL1        0.0369
     26 C         138.1392  143.0490  161.9197 C.ar    1  UNL1        0.1387
     27 C         138.3496  141.6884  162.5151 C.ar    1  UNL1        0.0414
     28 C         138.0990  138.4155  166.4614 C.3     1  UNL1        0.1109
     29 N         137.8885  139.7761  165.8660 N.am    1  UNL1       -0.2992
     30 C         138.5970  140.1587  164.6005 C.2     1  UNL1        0.2460
     31 O         139.5160  139.1808  163.9302 O.2     1  UNL1       -0.2701
     32 H         137.2854  140.4180  166.3059 H       1  UNL1        0.1498
@<TRIPOS>BOND
     1    28    29    1
     2    29    30   am
     3    30    31    2
     4    30    22    1
     5    22    23   ar
     6    23    24   ar
     7    24    25   ar
     8    25    26   ar
     9    26    21    1
    10    21    20    1
    11    20    19    1
    12    19    18    1
    13    18     1    1
    14     1     2    1
    15     2     3    1
    16     3     4    1
    17     4     5    1
    18     5     8    1
    19     8     9   ar
    20     9    10   ar
    21    10    11   ar
    22    11    12   ar
    23    12    13   ar
    24    13    14    1
    25    13    15   ar
    26    15    16   ar
    27    16    17   ar
    28     5     6    1
    29     6     7    1
    30    26    27   ar
    31    27    22   ar
    32     7     2    1
    33    17     8   ar
    34    17    11   ar
    35    29    32    1
@<TRIPOS>MOLECULE
*****
 32 35 0 0 0
SMALL
GASTEIGER

@<TRIPOS>ATOM
      1 C         139.9732  137.8520  162.4236 C.3     1  UNL1        0.0722
      2 N         139.9504  138.4237  163.8102 N.3     1  UNL1       -0.2727
      3 C         141.1414  138.2620  164.7077 C.3     1  UNL1        0.0725
      4 C         141.1186  138.8337  166.0943 C.3     1  UNL1        0.0234
      5 C         139.9049  139.5672  166.5834 C.3     1  UNL1        0.0464
      6 C         138.7141  139.7288  165.6859 C.3     1  UNL1        0.0234
      7 C         138.7368  139.1571  164.2993 C.3     1  UNL1        0.0725
      8 C         139.8822  140.1389  167.9700 C.ar    1  UNL1        0.1003
      9 N         138.8110  139.9192  168.9969 N.ar    1  UNL1       -0.0814
     10 O         139.1935  140.6752  170.2346 O.2     1  UNL1       -0.3536
     11 C         140.5010  141.3621  169.9728 C.ar    1  UNL1        0.1787
     12 C         141.3590  142.2466  170.8281 C.ar    1  UNL1        0.0698
     13 C         142.6427  142.7996  170.2837 C.ar    1  UNL1        0.1433
     14 F         143.5007  143.6841  171.1389 F       1  UNL1       -0.2041
     15 C         143.0683  142.4681  168.8840 C.ar    1  UNL1        0.0299
     16 C         142.2103  141.5837  168.0288 C.ar    1  UNL1        0.0067
     17 C         140.9267  141.0306  168.5732 C.ar    1  UNL1        0.0540
     18 C         140.8909  138.4316  161.3884 C.3     1  UNL1        0.0212
     19 C         142.2730  137.8748  161.2152 C.3     1  UNL1        0.0488
     20 C         143.4007  138.3913  162.0587 C.3     1  UNL1        0.2054
     21 O         143.9311  139.7764  161.8350 O.3     1  UNL1       -0.4755
     22 C         142.0047  142.3327  164.1811 C.ar    1  UNL1        0.0564
     23 C         143.1538  143.0017  164.8753 C.ar    1  UNL1        0.0047
     24 C         144.5621  142.5956  164.5560 C.ar    1  UNL1        0.0033
     25 C         144.8212  141.5205  163.5426 C.ar    1  UNL1        0.0369
     26 C         143.6720  140.8515  162.8484 C.ar    1  UNL1        0.1387
     27 C         142.2638  141.2577  163.1677 C.ar    1  UNL1        0.0414
     28 C         138.1153  143.0121  163.7799 C.3     1  UNL1        0.1109
     29 N         139.5235  142.6060  163.4605 N.am    1  UNL1       -0.2992
     30 C         140.5964  142.7389  164.5003 C.2     1  UNL1        0.2460
     31 O         140.2612  143.2779  165.8595 O.2     1  UNL1       -0.2701
     32 H         139.7436  142.2522  162.5685 H       1  UNL1        0.1498
@<TRIPOS>BOND
     1    28    29    1
     2    29    30   am
     3    30    31    2
     4    30    22    1
     5    22    23   ar
     6    23    24   ar
     7    24    25   ar
     8    25    26   ar
     9    26    21    1
    10    21    20    1
    11    20    19    1
    12    19    18    1
    13    18     1    1
    14     1     2    1
    15     2     3    1
    16     3     4    1
    17     4     5    1
    18     5     8    1
    19     8     9   ar
    20     9    10   ar
    21    10    11   ar
    22    11    12   ar
    23    12    13   ar
    24    13    14    1
    25    13    15   ar
    26    15    16   ar
    27    16    17   ar
    28     5     6    1
    29     6     7    1
    30    26    27   ar
    31    27    22   ar
    32     7     2    1
    33    17     8   ar
    34    17    11   ar
    35    29    32    1
@<TRIPOS>MOLECULE
*****
 32 35 0 0 0
SMALL
GASTEIGER

@<TRIPOS>ATOM
      1 C         143.3797  137.9833  161.1415 C.3     1  UNL1        0.0722
      2 N         143.2175  138.3535  162.5861 N.3     1  UNL1       -0.2727
      3 C         141.9760  137.9551  163.3275 C.3     1  UNL1        0.0725
      4 C         141.8138  138.3253  164.7721 C.3     1  UNL1        0.0234
      5 C         142.8933  139.0938  165.4752 C.3     1  UNL1        0.0464
      6 C         144.1348  139.4921  164.7337 C.3     1  UNL1        0.0234
      7 C         144.2969  139.1219  163.2891 C.3     1  UNL1        0.0725
      8 C         142.7311  139.4639  166.9197 C.ar    1  UNL1        0.1003
      9 N         143.2733  138.7006  168.0917 N.ar    1  UNL1       -0.0814
     10 O         142.8756  139.4273  169.3422 O.2     1  UNL1       -0.3536
     11 C         142.0876  140.6397  168.9431 C.ar    1  UNL1        0.1787
     12 C         141.4399  141.7260  169.7495 C.ar    1  UNL1        0.0698
     13 C         140.7029  142.8349  169.0588 C.ar    1  UNL1        0.1433
     14 F         140.0551  143.9212  169.8652 F       1  UNL1       -0.2041
     15 C         140.6137  142.8575  167.5616 C.ar    1  UNL1        0.0299
     16 C         141.2614  141.7712  166.7552 C.ar    1  UNL1        0.0067
     17 C         141.9984  140.6623  167.4459 C.ar    1  UNL1        0.0540
     18 C         142.8365  138.8830  160.0712 C.3     1  UNL1        0.0212
     19 C         143.7246  139.9088  159.4316 C.3     1  UNL1        0.0488
     20 C         143.6829  141.3333  159.8996 C.3     1  UNL1        0.2054
     21 O         144.2520  141.7000  161.2382 O.3     1  UNL1       -0.4755
     22 C         141.3873  143.5243  163.2914 C.ar    1  UNL1        0.0564
     23 C         142.1364  144.7043  163.8359 C.ar    1  UNL1        0.0047
     24 C         143.5906  144.8828  163.5146 C.ar    1  UNL1        0.0033
     25 C         144.2958  143.8814  162.6486 C.ar    1  UNL1        0.0369
     26 C         143.5468  142.7014  162.1041 C.ar    1  UNL1        0.1387
     27 C         142.0925  142.5229  162.4255 C.ar    1  UNL1        0.0414
     28 C         137.7339  141.9784  163.4035 C.3     1  UNL1        0.1109
     29 N         139.1881  142.1568  163.0821 N.am    1  UNL1       -0.2992
     30 C         139.9331  143.3457  163.6128 C.2     1  UNL1        0.2460
     31 O         139.2238  144.3562  164.4648 O.2     1  UNL1       -0.2701
     32 H         139.6537  141.4937  162.5229 H       1  UNL1        0.1498
@<TRIPOS>BOND
     1    28    29    1
     2    29    30   am
     3    30    31    2
     4    30    22    1
     5    22    23   ar
     6    23    24   ar
     7    24    25   ar
     8    25    26   ar
     9    26    21    1
    10    21    20    1
    11    20    19    1
    12    19    18    1
    13    18     1    1
    14     1     2    1
    15     2     3    1
    16     3     4    1
    17     4     5    1
    18     5     8    1
    19     8     9   ar
    20     9    10   ar
    21    10    11   ar
    22    11    12   ar
    23    12    13   ar
    24    13    14    1
    25    13    15   ar
    26    15    16   ar
    27    16    17   ar
    28     5     6    1
    29     6     7    1
    30    26    27   ar
    31    27    22   ar
    32     7     2    1
    33    17     8   ar
    34    17    11   ar
    35    29    32    1
@<TRIPOS>MOLECULE
*****
 32 35 0 0 0
SMALL
GASTEIGER

@<TRIPOS>ATOM
      1 C         140.7909  141.5283  160.2136 C.3     1  UNL1        0.0722
      2 N         140.4166  141.1609  161.6189 N.3     1  UNL1       -0.2727
      3 C         138.9718  141.0365  162.0021 C.3     1  UNL1        0.0725
      4 C         138.5975  140.6690  163.4075 C.3     1  UNL1        0.0234
      5 C         139.6682  140.4260  164.4296 C.3     1  UNL1        0.0464
      6 C         141.1130  140.5504  164.0463 C.3     1  UNL1        0.0234
      7 C         141.4873  140.9178  162.6410 C.3     1  UNL1        0.0725
      8 C         139.2940  140.0585  165.8349 C.ar    1  UNL1        0.1003
      9 N         138.4369  138.8976  166.2442 N.ar    1  UNL1       -0.0814
     10 O         138.3244  138.9091  167.7399 O.2     1  UNL1       -0.3536
     11 C         139.1119  140.0772  168.2551 C.ar    1  UNL1        0.1787
     12 C         139.3607  140.5858  169.6441 C.ar    1  UNL1        0.0698
     13 C         140.2089  141.8047  169.8557 C.ar    1  UNL1        0.1433
     14 F         140.4578  142.3133  171.2448 F       1  UNL1       -0.2041
     15 C         140.8081  142.5151  168.6783 C.ar    1  UNL1        0.0299
     16 C         140.5593  142.0066  167.2893 C.ar    1  UNL1        0.0067
     17 C         139.7112  140.7876  167.0777 C.ar    1  UNL1        0.0540
     18 C         139.7268  141.6632  159.1649 C.3     1  UNL1        0.0212
     19 C         139.2015  143.0200  158.7998 C.3     1  UNL1        0.0488
     20 C         139.9969  144.2470  159.1340 C.3     1  UNL1        0.2054
     21 O         139.5177  145.1832  160.2036 O.3     1  UNL1       -0.4755
     22 C         141.4748  144.4787  163.5834 C.ar    1  UNL1        0.0564
     23 C         140.3333  144.2610  164.5318 C.ar    1  UNL1        0.0047
     24 C         138.9200  144.3507  164.0375 C.ar    1  UNL1        0.0033
     25 C         138.6481  144.6581  162.5948 C.ar    1  UNL1        0.0369
     26 C         139.7896  144.8758  161.6463 C.ar    1  UNL1        0.1387
     27 C         141.2029  144.7861  162.1406 C.ar    1  UNL1        0.0414
     28 C         144.6744  143.2674  165.5948 C.3     1  UNL1        0.1109
     29 N         143.2610  143.3570  165.1005 N.am    1  UNL1       -0.2992
     30 C         142.8882  144.3890  164.0777 C.2     1  UNL1        0.2460
     31 O         143.9288  145.3313  163.5491 O.2     1  UNL1       -0.2701
     32 H         142.5780  142.7386  165.4474 H       1  UNL1        0.1498
@<TRIPOS>BOND
     1    28    29    1
     2    29    30   am
     3    30    31    2
     4    30    22    1
     5    22    23   ar
     6    23    24   ar
     7    24    25   ar
     8    25    26   ar
     9    26    21    1
    10    21    20    1
    11    20    19    1
    12    19    18    1
    13    18     1    1
    14     1     2    1
    15     2     3    1
    16     3     4    1
    17     4     5    1
    18     5     8    1
    19     8     9   ar
    20     9    10   ar
    21    10    11   ar
    22    11    12   ar
    23    12    13   ar
    24    13    14    1
    25    13    15   ar
    26    15    16   ar
    27    16    17   ar
    28     5     6    1
    29     6     7    1
    30    26    27   ar
    31    27    22   ar
    32     7     2    1
    33    17     8   ar
    34    17    11   ar
    35    29    32    1
@<TRIPOS>MOLECULE
*****
 32 35 0 0 0
SMALL
GASTEIGER

@<TRIPOS>ATOM
      1 C         138.2431  138.3797  161.3403 C.3     1  UNL1        0.0722
      2 N         138.3823  138.7169  162.7952 N.3     1  UNL1       -0.2727
      3 C         138.0372  140.0929  163.2826 C.3     1  UNL1        0.0725
      4 C         138.1764  140.4301  164.7376 C.3     1  UNL1        0.0234
      5 C         138.6608  139.3912  165.7052 C.3     1  UNL1        0.0464
      6 C         139.0058  138.0153  165.2178 C.3     1  UNL1        0.0234
      7 C         138.8666  137.6781  163.7628 C.3     1  UNL1        0.0725
      8 C         138.8000  139.7284  167.1602 C.ar    1  UNL1        0.1003
      9 N         138.1098  139.0334  168.2963 N.ar    1  UNL1       -0.0814
     10 O         138.5371  139.6953  169.5727 O.2     1  UNL1       -0.3536
     11 C         139.4914  140.7993  169.2255 C.ar    1  UNL1        0.1787
     12 C         140.2333  141.7886  170.0744 C.ar    1  UNL1        0.0698
     13 C         141.1377  142.7984  169.4323 C.ar    1  UNL1        0.1433
     14 F         141.8797  143.7878  170.2813 F       1  UNL1       -0.2041
     15 C         141.3001  142.8189  167.9413 C.ar    1  UNL1        0.0299
     16 C         140.5582  141.8296  167.0924 C.ar    1  UNL1        0.0067
     17 C         139.6538  140.8198  167.7345 C.ar    1  UNL1        0.0540
     18 C         139.4106  138.5545  160.4148 C.3     1  UNL1        0.0212
     19 C         140.7776  138.1059  160.8392 C.3     1  UNL1        0.0488
     20 C         141.8979  139.0991  160.9311 C.3     1  UNL1        0.2054
     21 O         143.0667  138.8301  161.8319 O.3     1  UNL1       -0.4755
     22 C         143.3851  139.5750  165.7169 C.ar    1  UNL1        0.0564
     23 C         143.4804  141.0719  165.7116 C.ar    1  UNL1        0.0047
     24 C         143.4377  141.8216  164.4131 C.ar    1  UNL1        0.0033
     25 C         143.2999  141.0743  163.1198 C.ar    1  UNL1        0.0369
     26 C         143.2046  139.5774  163.1251 C.ar    1  UNL1        0.1387
     27 C         143.2472  138.8277  164.4237 C.ar    1  UNL1        0.0414
     28 C         142.8002  138.6431  169.5300 C.3     1  UNL1        0.1109
     29 N         142.7575  139.3928  168.2315 N.am    1  UNL1       -0.2992
     30 C         143.4277  138.8253  167.0155 C.2     1  UNL1        0.2460
     31 O         144.1407  137.5081  167.0979 O.2     1  UNL1       -0.2701
     32 H         142.2896  140.2573  168.1773 H       1  UNL1        0.1498
@<TRIPOS>BOND
     1    28    29    1
     2    29    30   am
     3    30    31    2
     4    30    22    1
     5    22    23   ar
     6    23    24   ar
     7    24    25   ar
     8    25    26   ar
     9    26    21    1
    10    21    20    1
    11    20    19    1
    12    19    18    1
    13    18     1    1
    14     1     2    1
    15     2     3    1
    16     3     4    1
    17     4     5    1
    18     5     8    1
    19     8     9   ar
    20     9    10   ar
    21    10    11   ar
    22    11    12   ar
    23    12    13   ar
    24    13    14    1
    25    13    15   ar
    26    15    16   ar
    27    16    17   ar
    28     5     6    1
    29     6     7    1
    30    26    27   ar
    31    27    22   ar
    32     7     2    1
    33    17     8   ar
    34    17    11   ar
    35    29    32    1
