@<TRIPOS>MOLECULE
*****
 25 26 0 0 0
SMALL
GASTEIGER

@<TRIPOS>ATOM
      1 O         141.2750  140.6136  164.3541 O.2     1  UNL1       -0.1499
      2 S         141.5397  139.1642  164.6358 S.O2    1  UNL1        0.0736
      3 O         141.8318  138.0367  164.9815 O.2     1  UNL1       -0.1499
      4 C         140.7369  138.7827  163.4275 C.ar    1  UNL1        0.1290
      5 C         141.3621  138.8335  162.0649 C.ar    1  UNL1        0.0201
      6 C         140.5593  138.4521  160.8567 C.ar    1  UNL1        0.0014
      7 C         139.1313  138.0198  161.0109 C.ar    1  UNL1        0.0000
      8 C         138.5061  137.9690  162.3735 C.ar    1  UNL1        0.0052
      9 C         139.3088  138.3505  163.5817 C.ar    1  UNL1        0.0902
     10 C         138.6836  138.2997  164.9443 C.3     1  UNL1        0.4198
     11 F         138.0584  138.2489  166.3068 F       1  UNL1       -0.1658
     12 F         138.2651  139.7335  164.8056 F       1  UNL1       -0.1658
     13 F         138.9583  137.1421  165.1903 F       1  UNL1       -0.1658
     14 N         142.3426  139.5457  165.8440 N.pl3   1  UNL1       -0.2135
     15 H         143.2823  139.2621  165.9202 H       1  UNL1        0.1738
     16 C         141.7137  140.3591  166.9363 C.ar    1  UNL1        0.0839
     17 C         140.4685  139.8693  167.6141 C.ar    1  UNL1        0.0189
     18 C         139.8396  140.6828  168.7062 C.ar    1  UNL1        0.0244
     19 C         140.4560  141.9860  169.1205 C.ar    1  UNL1        0.1527
     20 N         141.7012  142.4758  168.4427 N.ar    1  UNL1       -0.2385
     21 C         142.3300  141.6624  167.3506 C.ar    1  UNL1        0.1145
     22 C         139.8271  142.7995  170.2127 C.3     1  UNL1        0.4348
     23 F         139.1982  143.6128  171.3049 F       1  UNL1       -0.1644
     24 F         140.8552  143.8719  170.0061 F       1  UNL1       -0.1644
     25 F         138.7990  141.7270  170.4194 F       1  UNL1       -0.1644
@<TRIPOS>BOND
     1     1     2    2
     2     2     3    2
     3     2    14    1
     4    14    16    1
     5    16    17   ar
     6    17    18   ar
     7    18    19   ar
     8    19    22    1
     9    22    23    1
    10    22    24    1
    11    22    25    1
    12    19    20   ar
    13    20    21   ar
    14     2     4    1
    15     4     5   ar
    16     5     6   ar
    17     6     7   ar
    18     7     8   ar
    19     8     9   ar
    20     9    10    1
    21    10    11    1
    22    10    12    1
    23    10    13    1
    24    21    16   ar
    25     9     4   ar
    26    14    15    1
@<TRIPOS>MOLECULE
*****
 25 26 0 0 0
SMALL
GASTEIGER

@<TRIPOS>ATOM
      1 O         139.8359  141.2531  166.7635 O.2     1  UNL1       -0.1499
      2 S         139.7644  140.3818  167.9823 S.O2    1  UNL1        0.0736
      3 O         139.6048  139.5970  168.8959 O.2     1  UNL1       -0.1499
      4 C         140.7983  141.2364  168.6539 C.ar    1  UNL1        0.1290
      5 C         140.3822  142.4671  169.4037 C.ar    1  UNL1        0.0201
      6 C         141.4159  143.3216  170.0753 C.ar    1  UNL1        0.0014
      7 C         142.8659  142.9454  169.9970 C.ar    1  UNL1        0.0000
      8 C         143.2820  141.7147  169.2472 C.ar    1  UNL1        0.0052
      9 C         142.2482  140.8602  168.5757 C.ar    1  UNL1        0.0902
     10 C         142.6643  139.6295  167.8259 C.3     1  UNL1        0.4198
     11 F         143.0805  138.3988  167.0761 F       1  UNL1       -0.1658
     12 F         142.5765  138.8288  169.0913 F       1  UNL1       -0.1658
     13 F         142.7761  140.1516  166.7345 F       1  UNL1       -0.1658
     14 N         138.7306  139.5273  167.3108 N.pl3   1  UNL1       -0.2135
     15 H         137.9628  139.1879  167.8252 H       1  UNL1        0.1738
     16 C         138.8665  139.1899  165.8556 C.ar    1  UNL1        0.0839
     17 C         139.8046  138.1026  165.4222 C.ar    1  UNL1        0.0189
     18 C         139.9405  137.7652  163.9670 C.ar    1  UNL1        0.0244
     19 C         139.1383  138.5151  162.9452 C.ar    1  UNL1        0.1527
     20 N         138.2002  139.6023  163.3785 N.ar    1  UNL1       -0.2385
     21 C         138.0643  139.9397  164.8337 C.ar    1  UNL1        0.1145
     22 C         139.2743  138.1776  161.4899 C.3     1  UNL1        0.4348
     23 F         139.4102  137.8402  160.0347 F       1  UNL1       -0.1644
     24 F         137.8294  138.5188  161.2758 F       1  UNL1       -0.1644
     25 F         140.7191  137.8364  161.7040 F       1  UNL1       -0.1644
@<TRIPOS>BOND
     1     1     2    2
     2     2     3    2
     3     2    14    1
     4    14    16    1
     5    16    17   ar
     6    17    18   ar
     7    18    19   ar
     8    19    22    1
     9    22    23    1
    10    22    24    1
    11    22    25    1
    12    19    20   ar
    13    20    21   ar
    14     2     4    1
    15     4     5   ar
    16     5     6   ar
    17     6     7   ar
    18     7     8   ar
    19     8     9   ar
    20     9    10    1
    21    10    11    1
    22    10    12    1
    23    10    13    1
    24    21    16   ar
    25     9     4   ar
    26    14    15    1
@<TRIPOS>MOLECULE
*****
 25 26 0 0 0
SMALL
GASTEIGER

@<TRIPOS>ATOM
      1 O         140.8109  139.3388  166.9220 O.2     1  UNL1       -0.1499
      2 S         139.9390  139.8721  168.0199 S.O2    1  UNL1        0.0736
      3 O         139.1200  140.2372  168.8396 O.2     1  UNL1       -0.1499
      4 C         141.1348  140.5160  168.6568 C.ar    1  UNL1        0.1290
      5 C         141.9490  139.7567  169.6620 C.ar    1  UNL1        0.0201
      6 C         143.1447  140.4005  170.2990 C.ar    1  UNL1        0.0014
      7 C         143.5262  141.8036  169.9307 C.ar    1  UNL1        0.0000
      8 C         142.7119  142.5629  168.9255 C.ar    1  UNL1        0.0052
      9 C         141.5162  141.9191  168.2885 C.ar    1  UNL1        0.0902
     10 C         140.7020  142.6784  167.2833 C.3     1  UNL1        0.4198
     11 F         139.8878  143.4377  166.2781 F       1  UNL1       -0.1658
     12 F         139.9179  143.3097  168.3953 F       1  UNL1       -0.1658
     13 F         141.2520  142.2458  166.2901 F       1  UNL1       -0.1658
     14 N         138.7433  139.2282  167.3830 N.pl3   1  UNL1       -0.2135
     15 H         138.0657  138.7856  167.9434 H       1  UNL1        0.1738
     16 C         138.5800  139.2588  165.8921 C.ar    1  UNL1        0.0839
     17 C         138.2459  140.5472  165.2006 C.ar    1  UNL1        0.0189
     18 C         138.0826  140.5778  163.7098 C.ar    1  UNL1        0.0244
     19 C         138.2535  139.3199  162.9107 C.ar    1  UNL1        0.1527
     20 N         138.5876  138.0315  163.6023 N.ar    1  UNL1       -0.2385
     21 C         138.7509  138.0010  165.0930 C.ar    1  UNL1        0.1145
     22 C         138.0902  139.3505  161.4198 C.3     1  UNL1        0.4348
     23 F         137.9269  139.3812  159.9291 F       1  UNL1       -0.1644
     24 F         138.8084  138.0379  161.3142 F       1  UNL1       -0.1644
     25 F         137.3719  140.6631  161.5255 F       1  UNL1       -0.1644
@<TRIPOS>BOND
     1     1     2    2
     2     2     3    2
     3     2    14    1
     4    14    16    1
     5    16    17   ar
     6    17    18   ar
     7    18    19   ar
     8    19    22    1
     9    22    23    1
    10    22    24    1
    11    22    25    1
    12    19    20   ar
    13    20    21   ar
    14     2     4    1
    15     4     5   ar
    16     5     6   ar
    17     6     7   ar
    18     7     8   ar
    19     8     9   ar
    20     9    10    1
    21    10    11    1
    22    10    12    1
    23    10    13    1
    24    21    16   ar
    25     9     4   ar
    26    14    15    1
@<TRIPOS>MOLECULE
*****
 25 26 0 0 0
SMALL
GASTEIGER

@<TRIPOS>ATOM
      1 O         142.3225  140.6565  166.6925 O.2     1  UNL1       -0.1499
      2 S         142.5871  139.6741  167.7947 S.O2    1  UNL1        0.0736
      3 O         142.9032  138.8187  168.5976 O.2     1  UNL1       -0.1499
      4 C         141.5396  140.3385  168.6383 C.ar    1  UNL1        0.1290
      5 C         140.1266  139.8358  168.6133 C.ar    1  UNL1        0.0201
      6 C         139.0792  140.5001  169.4568 C.ar    1  UNL1        0.0014
      7 C         139.4448  141.6670  170.3254 C.ar    1  UNL1        0.0000
      8 C         140.8579  142.1696  170.3505 C.ar    1  UNL1        0.0052
      9 C         141.9053  141.5054  169.5070 C.ar    1  UNL1        0.0902
     10 C         143.3183  142.0080  169.5321 C.3     1  UNL1        0.4198
     11 F         144.7314  142.5106  169.5571 F       1  UNL1       -0.1658
     12 F         143.6600  140.9951  170.5843 F       1  UNL1       -0.1658
     13 F         143.1832  142.8720  168.6886 F       1  UNL1       -0.1658
     14 N         143.6345  139.0098  166.9512 N.pl3   1  UNL1       -0.2135
     15 H         144.4949  138.7473  167.3511 H       1  UNL1        0.1738
     16 C         143.3708  138.7454  165.4984 C.ar    1  UNL1        0.0839
     17 C         144.3210  139.2598  164.4579 C.ar    1  UNL1        0.0189
     18 C         144.0573  138.9954  163.0052 C.ar    1  UNL1        0.0244
     19 C         142.8435  138.2165  162.5929 C.ar    1  UNL1        0.1527
     20 N         141.8933  137.7021  163.6333 N.ar    1  UNL1       -0.2385
     21 C         142.1570  137.9665  165.0860 C.ar    1  UNL1        0.1145
     22 C         142.5798  137.9521  161.1400 C.3     1  UNL1        0.4348
     23 F         142.3162  137.6878  159.6873 F       1  UNL1       -0.1644
     24 F         141.1460  137.6453  161.4560 F       1  UNL1       -0.1644
     25 F         144.0137  138.2590  160.8240 F       1  UNL1       -0.1644
@<TRIPOS>BOND
     1     1     2    2
     2     2     3    2
     3     2    14    1
     4    14    16    1
     5    16    17   ar
     6    17    18   ar
     7    18    19   ar
     8    19    22    1
     9    22    23    1
    10    22    24    1
    11    22    25    1
    12    19    20   ar
    13    20    21   ar
    14     2     4    1
    15     4     5   ar
    16     5     6   ar
    17     6     7   ar
    18     7     8   ar
    19     8     9   ar
    20     9    10    1
    21    10    11    1
    22    10    12    1
    23    10    13    1
    24    21    16   ar
    25     9     4   ar
    26    14    15    1
@<TRIPOS>MOLECULE
*****
 25 26 0 0 0
SMALL
GASTEIGER

@<TRIPOS>ATOM
      1 O         142.7337  140.9603  166.4358 O.2     1  UNL1       -0.1499
      2 S         142.7042  139.9785  167.5694 S.O2    1  UNL1        0.0736
      3 O         142.7199  139.0807  168.3879 O.2     1  UNL1       -0.1499
      4 C         142.3042  141.0764  168.5100 C.ar    1  UNL1        0.1290
      5 C         143.3555  141.8591  169.2395 C.ar    1  UNL1        0.0201
      6 C         142.9555  142.9569  170.1801 C.ar    1  UNL1        0.0014
      7 C         141.5043  143.2721  170.3912 C.ar    1  UNL1        0.0000
      8 C         140.4530  142.4893  169.6617 C.ar    1  UNL1        0.0052
      9 C         140.8530  141.3915  168.7211 C.ar    1  UNL1        0.0902
     10 C         139.8017  140.6088  167.9916 C.3     1  UNL1        0.4198
     11 F         138.7504  139.8261  167.2622 F       1  UNL1       -0.1658
     12 F         139.7179  139.6494  169.1417 F       1  UNL1       -0.1658
     13 F         139.7652  141.3028  166.9951 F       1  UNL1       -0.1658
     14 N         143.1042  138.8806  166.6289 N.pl3   1  UNL1       -0.2135
     15 H         143.8788  138.3104  166.8388 H       1  UNL1        0.1738
     16 C         142.3238  138.6514  165.3684 C.ar    1  UNL1        0.0839
     17 C         140.8465  138.4009  165.4360 C.ar    1  UNL1        0.0189
     18 C         140.0663  138.1717  164.1756 C.ar    1  UNL1        0.0244
     19 C         140.7634  138.1930  162.8476 C.ar    1  UNL1        0.1527
     20 N         142.2407  138.4435  162.7800 N.ar    1  UNL1       -0.2385
     21 C         143.0210  138.6727  164.0404 C.ar    1  UNL1        0.1145
     22 C         139.9831  137.9638  161.5871 C.3     1  UNL1        0.4348
     23 F         139.2028  137.7346  160.3267 F       1  UNL1       -0.1644
     24 F         138.7874  137.5644  162.4000 F       1  UNL1       -0.1644
     25 F         141.1788  138.3633  160.7743 F       1  UNL1       -0.1644
@<TRIPOS>BOND
     1     1     2    2
     2     2     3    2
     3     2    14    1
     4    14    16    1
     5    16    17   ar
     6    17    18   ar
     7    18    19   ar
     8    19    22    1
     9    22    23    1
    10    22    24    1
    11    22    25    1
    12    19    20   ar
    13    20    21   ar
    14     2     4    1
    15     4     5   ar
    16     5     6   ar
    17     6     7   ar
    18     7     8   ar
    19     8     9   ar
    20     9    10    1
    21    10    11    1
    22    10    12    1
    23    10    13    1
    24    21    16   ar
    25     9     4   ar
    26    14    15    1
@<TRIPOS>MOLECULE
*****
 25 26 0 0 0
SMALL
GASTEIGER

@<TRIPOS>ATOM
      1 O         139.3529  142.0586  163.9232 O.2     1  UNL1       -0.1499
      2 S         137.9673  141.6253  163.5458 S.O2    1  UNL1        0.0736
      3 O         136.8245  141.4133  163.1922 O.2     1  UNL1       -0.1499
      4 C         138.2605  140.2448  164.0542 C.ar    1  UNL1        0.1290
      5 C         138.1753  139.9528  165.5231 C.ar    1  UNL1        0.0201
      6 C         138.4684  138.5724  166.0315 C.ar    1  UNL1        0.0014
      7 C         138.8467  137.4840  165.0711 C.ar    1  UNL1        0.0000
      8 C         138.9318  137.7761  163.6023 C.ar    1  UNL1        0.0052
      9 C         138.6387  139.1565  163.0938 C.ar    1  UNL1        0.0902
     10 C         138.7238  139.4486  161.6250 C.3     1  UNL1        0.4198
     11 F         138.8090  139.7406  160.1562 F       1  UNL1       -0.1658
     12 F         137.3283  138.9302  161.4411 F       1  UNL1       -0.1658
     13 F         139.8542  139.8941  161.6279 F       1  UNL1       -0.1658
     14 N         137.6742  143.0057  163.0374 N.pl3   1  UNL1       -0.2135
     15 H         136.9186  143.5166  163.4080 H       1  UNL1        0.1738
     16 C         138.5322  143.6077  161.9643 C.ar    1  UNL1        0.0839
     17 C         139.3037  144.8647  162.2379 C.ar    1  UNL1        0.0189
     18 C         140.1616  145.4666  161.1649 C.ar    1  UNL1        0.0244
     19 C         140.2481  144.8116  159.8182 C.ar    1  UNL1        0.1527
     20 N         139.4767  143.5547  159.5446 N.ar    1  UNL1       -0.2385
     21 C         138.6187  142.9527  160.6177 C.ar    1  UNL1        0.1145
     22 C         141.1062  145.4136  158.7451 C.3     1  UNL1        0.4348
     23 F         141.9641  146.0156  157.6721 F       1  UNL1       -0.1644
     24 F         142.2438  144.5272  159.1574 F       1  UNL1       -0.1644
     25 F         139.9685  146.3000  158.3328 F       1  UNL1       -0.1644
@<TRIPOS>BOND
     1     1     2    2
     2     2     3    2
     3     2    14    1
     4    14    16    1
     5    16    17   ar
     6    17    18   ar
     7    18    19   ar
     8    19    22    1
     9    22    23    1
    10    22    24    1
    11    22    25    1
    12    19    20   ar
    13    20    21   ar
    14     2     4    1
    15     4     5   ar
    16     5     6   ar
    17     6     7   ar
    18     7     8   ar
    19     8     9   ar
    20     9    10    1
    21    10    11    1
    22    10    12    1
    23    10    13    1
    24    21    16   ar
    25     9     4   ar
    26    14    15    1
@<TRIPOS>MOLECULE
*****
 25 26 0 0 0
SMALL
GASTEIGER

@<TRIPOS>ATOM
      1 O         142.4849  139.9711  167.3501 O.2     1  UNL1       -0.1499
      2 S         142.9322  141.2553  166.7172 S.O2    1  UNL1        0.0736
      3 O         143.3487  142.2119  166.0945 O.2     1  UNL1       -0.1499
      4 C         142.3565  142.0239  167.8696 C.ar    1  UNL1        0.1290
      5 C         143.1992  142.3074  169.0777 C.ar    1  UNL1        0.0201
      6 C         142.6237  143.0759  170.2301 C.ar    1  UNL1        0.0014
      7 C         141.2054  143.5609  170.1744 C.ar    1  UNL1        0.0000
      8 C         140.3627  143.2774  168.9663 C.ar    1  UNL1        0.0052
      9 C         140.9382  142.5089  167.8139 C.ar    1  UNL1        0.0902
     10 C         140.0955  142.2254  166.6058 C.3     1  UNL1        0.4198
     11 F         139.2528  141.9420  165.3977 F       1  UNL1       -0.1658
     12 F         140.5609  143.5070  165.9804 F       1  UNL1       -0.1658
     13 F         139.6382  141.1672  166.9893 F       1  UNL1       -0.1658
     14 N         143.5078  140.4869  165.5648 N.pl3   1  UNL1       -0.2135
     15 H         144.4804  140.3468  165.5033 H       1  UNL1        0.1738
     16 C         142.6017  139.9318  164.5060 C.ar    1  UNL1        0.0839
     17 C         141.8307  140.8611  163.6161 C.ar    1  UNL1        0.0189
     18 C         140.9246  140.3061  162.5574 C.ar    1  UNL1        0.0244
     19 C         140.7895  138.8217  162.3886 C.ar    1  UNL1        0.1527
     20 N         141.5605  137.8925  163.2785 N.ar    1  UNL1       -0.2385
     21 C         142.4666  138.4475  164.3372 C.ar    1  UNL1        0.1145
     22 C         139.8834  138.2667  161.3298 C.3     1  UNL1        0.4348
     23 F         138.9773  137.7117  160.2711 F       1  UNL1       -0.1644
     24 F         140.5561  139.1280  160.3025 F       1  UNL1       -0.1644
     25 F         139.2106  137.4054  162.3572 F       1  UNL1       -0.1644
@<TRIPOS>BOND
     1     1     2    2
     2     2     3    2
     3     2    14    1
     4    14    16    1
     5    16    17   ar
     6    17    18   ar
     7    18    19   ar
     8    19    22    1
     9    22    23    1
    10    22    24    1
    11    22    25    1
    12    19    20   ar
    13    20    21   ar
    14     2     4    1
    15     4     5   ar
    16     5     6   ar
    17     6     7   ar
    18     7     8   ar
    19     8     9   ar
    20     9    10    1
    21    10    11    1
    22    10    12    1
    23    10    13    1
    24    21    16   ar
    25     9     4   ar
    26    14    15    1
@<TRIPOS>MOLECULE
*****
 25 26 0 0 0
SMALL
GASTEIGER

@<TRIPOS>ATOM
      1 O         140.6128  138.9038  165.9273 O.2     1  UNL1       -0.1499
      2 S         139.1747  139.2763  166.1346 S.O2    1  UNL1        0.0736
      3 O         137.9773  139.4694  166.2068 O.2     1  UNL1       -0.1499
      4 C         139.5915  140.3531  167.0922 C.ar    1  UNL1        0.1290
      5 C         139.5948  140.0843  168.5679 C.ar    1  UNL1        0.0201
      6 C         140.0116  141.1610  169.5254 C.ar    1  UNL1        0.0014
      7 C         140.4252  142.5065  169.0072 C.ar    1  UNL1        0.0000
      8 C         140.4220  142.7752  167.5315 C.ar    1  UNL1        0.0052
      9 C         140.0052  141.6985  166.5740 C.ar    1  UNL1        0.0902
     10 C         140.0019  141.9673  165.0982 C.3     1  UNL1        0.4198
     11 F         139.9987  142.2361  163.6225 F       1  UNL1       -0.1658
     12 F         138.5537  142.3512  165.1713 F       1  UNL1       -0.1658
     13 F         141.1659  141.6852  164.8938 F       1  UNL1       -0.1658
     14 N         138.7578  138.1995  165.1772 N.pl3   1  UNL1       -0.2135
     15 H         138.3780  137.3577  165.5181 H       1  UNL1        0.1738
     16 C         138.9195  138.4055  163.7001 C.ar    1  UNL1        0.0839
     17 C         138.1332  139.4748  163.0014 C.ar    1  UNL1        0.0189
     18 C         138.2950  139.6806  161.5245 C.ar    1  UNL1        0.0244
     19 C         139.2431  138.8172  160.7463 C.ar    1  UNL1        0.1527
     20 N         140.0294  137.7480  161.4450 N.ar    1  UNL1       -0.2385
     21 C         139.8677  137.5421  162.9219 C.ar    1  UNL1        0.1145
     22 C         139.4049  139.0232  159.2693 C.3     1  UNL1        0.4348
     23 F         139.5666  139.2291  157.7923 F       1  UNL1       -0.1644
     24 F         140.7293  138.3206  159.3163 F       1  UNL1       -0.1644
     25 F         138.0805  139.7258  159.2222 F       1  UNL1       -0.1644
@<TRIPOS>BOND
     1     1     2    2
     2     2     3    2
     3     2    14    1
     4    14    16    1
     5    16    17   ar
     6    17    18   ar
     7    18    19   ar
     8    19    22    1
     9    22    23    1
    10    22    24    1
    11    22    25    1
    12    19    20   ar
    13    20    21   ar
    14     2     4    1
    15     4     5   ar
    16     5     6   ar
    17     6     7   ar
    18     7     8   ar
    19     8     9   ar
    20     9    10    1
    21    10    11    1
    22    10    12    1
    23    10    13    1
    24    21    16   ar
    25     9     4   ar
    26    14    15    1
@<TRIPOS>MOLECULE
*****
 25 26 0 0 0
SMALL
GASTEIGER

@<TRIPOS>ATOM
      1 O         140.5773  139.9794  164.6894 O.2     1  UNL1       -0.1499
      2 S         139.3032  140.7555  164.8450 S.O2    1  UNL1        0.0736
      3 O         138.2487  141.3587  164.8267 O.2     1  UNL1       -0.1499
      4 C         139.6094  140.9667  166.2982 C.ar    1  UNL1        0.1290
      5 C         139.2373  139.9172  167.3033 C.ar    1  UNL1        0.0201
      6 C         139.5434  140.1284  168.7564 C.ar    1  UNL1        0.0014
      7 C         140.2215  141.3890  169.2045 C.ar    1  UNL1        0.0000
      8 C         140.5936  142.4385  168.1995 C.ar    1  UNL1        0.0052
      9 C         140.2875  142.2274  166.7463 C.ar    1  UNL1        0.0902
     10 C         140.6596  143.2769  165.7413 C.3     1  UNL1        0.4198
     11 F         141.0317  144.3264  164.7363 F       1  UNL1       -0.1658
     12 F         139.3628  143.9847  166.0004 F       1  UNL1       -0.1658
     13 F         141.7389  142.8114  165.4338 F       1  UNL1       -0.1658
     14 N         138.9971  140.5444  163.3919 N.pl3   1  UNL1       -0.2135
     15 H         138.6029  139.6941  163.0904 H       1  UNL1        0.1738
     16 C         139.2915  141.6288  162.3981 C.ar    1  UNL1        0.0839
     17 C         140.6855  142.1662  162.2654 C.ar    1  UNL1        0.0189
     18 C         140.9798  143.2505  161.2716 C.ar    1  UNL1        0.0244
     19 C         139.8801  143.7974  160.4106 C.ar    1  UNL1        0.1527
     20 N         138.4860  143.2600  160.5433 N.ar    1  UNL1       -0.2385
     21 C         138.1917  142.1757  161.5370 C.ar    1  UNL1        0.1145
     22 C         140.1744  144.8818  159.4168 C.3     1  UNL1        0.4348
     23 F         140.4688  145.9661  158.4230 F       1  UNL1       -0.1644
     24 F         140.8808  145.6665  160.4822 F       1  UNL1       -0.1644
     25 F         139.4681  144.0970  158.3513 F       1  UNL1       -0.1644
@<TRIPOS>BOND
     1     1     2    2
     2     2     3    2
     3     2    14    1
     4    14    16    1
     5    16    17   ar
     6    17    18   ar
     7    18    19   ar
     8    19    22    1
     9    22    23    1
    10    22    24    1
    11    22    25    1
    12    19    20   ar
    13    20    21   ar
    14     2     4    1
    15     4     5   ar
    16     5     6   ar
    17     6     7   ar
    18     7     8   ar
    19     8     9   ar
    20     9    10    1
    21    10    11    1
    22    10    12    1
    23    10    13    1
    24    21    16   ar
    25     9     4   ar
    26    14    15    1
