@<TRIPOS>MOLECULE
*****
 39 42 0 0 0
SMALL
GASTEIGER

@<TRIPOS>ATOM
      1 C         140.5453  139.6176  158.6077 C.3     1  UNL1        0.2032
      2 C         140.5236  138.6470  159.7512 C.3     1  UNL1        0.0680
      3 C         139.6886  138.9350  160.9636 C.3     1  UNL1        0.0973
      4 N         138.8754  140.1935  161.0326 N.am    1  UNL1       -0.2762
      5 C         138.0405  140.4814  162.2450 C.2     1  UNL1        0.2301
      6 O         137.2272  141.7400  162.3139 O.2     1  UNL1       -0.2745
      7 C         138.8971  141.1641  159.8891 C.3     1  UNL1        0.1323
      8 C         139.7320  140.8761  158.6767 C.3     1  UNL1        0.2202
      9 F         139.7537  141.8467  157.5332 F       1  UNL1       -0.2316
     10 O         141.3802  139.3296  157.3953 O.3     1  UNL1       -0.4609
     11 C         142.2401  135.0733  156.2146 C.ar    1  UNL1        0.0387
     12 C         143.1808  135.8032  157.1269 C.ar    1  UNL1        0.1036
     13 N         142.8942  137.2220  157.5204 N.ar    1  UNL1       -0.2100
     14 C         141.6668  137.9108  157.0017 C.ar    1  UNL1        0.2292
     15 C         140.7261  137.1809  156.0895 C.ar    1  UNL1        0.1062
     16 C         141.0128  135.7622  155.6959 C.ar    1  UNL1        0.0123
     17 C         143.4155  130.7960  153.3503 C.3     1  UNL1        0.1321
     18 N         143.0670  131.6884  154.5045 N.ar    1  UNL1       -0.3059
     19 C         142.8686  131.2539  155.9264 C.ar    1  UNL1        0.1786
     20 N         142.5347  132.4690  156.7401 N.ar    1  UNL1       -0.2238
     21 C         142.5268  133.6545  155.8210 C.ar    1  UNL1        0.1017
     22 C         142.8557  133.1721  154.4394 C.ar    1  UNL1        0.0965
     23 C         139.4988  137.8698  155.5707 C.2     1  UNL1        0.2473
     24 N         139.5859  139.2810  155.0699 N.am    1  UNL1       -0.3252
     25 O         138.1843  137.1474  155.5529 O.2     1  UNL1       -0.2702
     26 H         140.4486  139.7551  155.0816 H       1  UNL1        0.1453
     27 H         138.7803  139.7331  154.7295 H       1  UNL1        0.1453
     28 C         138.0188  139.5109  163.3884 C.3     1  UNL1        0.1116
     29 C         138.6060  139.8992  164.7130 C.ar    1  UNL1       -0.0129
     30 C         138.2493  139.1252  165.9474 C.ar    1  UNL1       -0.0007
     31 C         138.8364  139.5135  167.2719 C.ar    1  UNL1        0.0369
     32 C         139.7803  140.6757  167.3621 C.ar    1  UNL1        0.1468
     33 C         140.1371  141.4497  166.1277 C.ar    1  UNL1        0.0369
     34 C         139.5499  141.0614  164.8032 C.ar    1  UNL1       -0.0007
     35 O         140.3675  141.0641  168.6867 O.3     1  UNL1       -0.4045
     36 C         140.0105  140.2903  169.9211 C.3     1  UNL1        0.5753
     37 F         139.6535  139.5166  171.1556 F       1  UNL1       -0.1328
     38 F         138.8327  141.1917  170.1455 F       1  UNL1       -0.1328
     39 F         141.1883  139.3889  169.6968 F       1  UNL1       -0.1328
@<TRIPOS>BOND
     1    17    18    1
     2    18    19   ar
     3    19    20   ar
     4    20    21   ar
     5    21    11    1
     6    11    12   ar
     7    12    13   ar
     8    13    14   ar
     9    14    10    1
    10     1    10    1
    11     1     2    1
    12     2     3    1
    13     3     4    1
    14     4     5   am
    15     5     6    2
    16     5    28    1
    17    28    29    1
    18    29    30   ar
    19    30    31   ar
    20    31    32   ar
    21    32    35    1
    22    35    36    1
    23    36    37    1
    24    36    38    1
    25    36    39    1
    26    32    33   ar
    27    33    34   ar
    28     4     7    1
    29     7     8    1
    30     8     9    1
    31    14    15   ar
    32    15    23    1
    33    23    24   am
    34    23    25    2
    35    15    16   ar
    36    21    22   ar
    37    22    18   ar
    38    16    11   ar
    39     8     1    1
    40    34    29   ar
    41    24    26    1
    42    24    27    1
@<TRIPOS>MOLECULE
*****
 39 42 0 0 0
SMALL
GASTEIGER

@<TRIPOS>ATOM
      1 C         142.0971  138.9929  159.9214 C.3     1  UNL1        0.2032
      2 C         141.2612  138.3494  160.9879 C.3     1  UNL1        0.0680
      3 C         141.7511  138.3138  162.4052 C.3     1  UNL1        0.0973
      4 N         143.0767  138.9217  162.7561 N.am    1  UNL1       -0.2762
      5 C         143.5664  138.8861  164.1734 C.2     1  UNL1        0.2301
      6 O         144.8921  139.4940  164.5244 O.2     1  UNL1       -0.2745
      7 C         143.9125  139.5652  161.6897 C.3     1  UNL1        0.1323
      8 C         143.4228  139.6008  160.2724 C.3     1  UNL1        0.2202
      9 F         144.2586  140.2443  159.2060 F       1  UNL1       -0.2316
     10 O         141.6073  139.0285  158.5041 O.3     1  UNL1       -0.4609
     11 C         142.1394  135.4346  155.8488 C.ar    1  UNL1        0.0387
     12 C         143.1679  135.7547  156.8926 C.ar    1  UNL1        0.1036
     13 N         142.9906  136.9527  157.7777 N.ar    1  UNL1       -0.2100
     14 C         141.7847  137.8305  157.6190 C.ar    1  UNL1        0.2292
     15 C         140.7561  137.5104  156.5752 C.ar    1  UNL1        0.1062
     16 C         140.9334  136.3124  155.6901 C.ar    1  UNL1        0.0123
     17 C         143.7372  130.7592  153.9864 C.3     1  UNL1        0.1321
     18 N         143.0511  132.0876  154.1076 N.ar    1  UNL1       -0.3059
     19 C         142.1279  132.6987  153.0956 C.ar    1  UNL1        0.1786
     20 N         141.6740  134.0268  153.6247 N.ar    1  UNL1       -0.2238
     21 C         142.3167  134.2366  154.9637 C.ar    1  UNL1        0.1017
     22 C         143.1678  133.0381  155.2622 C.ar    1  UNL1        0.0965
     23 C         139.5502  138.3882  156.4165 C.2     1  UNL1        0.2473
     24 N         138.9489  139.0604  157.6150 N.am    1  UNL1       -0.3252
     25 O         138.9455  138.5938  155.0593 O.2     1  UNL1       -0.2702
     26 H         139.3457  138.9255  158.5059 H       1  UNL1        0.1453
     27 H         138.1574  139.6366  157.5109 H       1  UNL1        0.1453
     28 C         142.7306  138.2426  165.2399 C.3     1  UNL1        0.1116
     29 C         142.0086  139.0935  166.2423 C.ar    1  UNL1       -0.0129
     30 C         142.7064  139.5306  167.4961 C.ar    1  UNL1       -0.0007
     31 C         141.9845  140.3814  168.4985 C.ar    1  UNL1        0.0369
     32 C         140.5648  140.7951  168.2472 C.ar    1  UNL1        0.1468
     33 C         139.8670  140.3580  166.9934 C.ar    1  UNL1        0.0369
     34 C         140.5889  139.5072  165.9910 C.ar    1  UNL1       -0.0007
     35 O         139.8428  141.6460  169.2497 O.3     1  UNL1       -0.4045
     36 C         140.3831  142.9969  169.6144 C.3     1  UNL1        0.5753
     37 F         140.9234  144.3479  169.9791 F       1  UNL1       -0.1328
     38 F         140.5310  142.5531  171.0395 F       1  UNL1       -0.1328
     39 F         140.2352  143.4408  168.1892 F       1  UNL1       -0.1328
@<TRIPOS>BOND
     1    17    18    1
     2    18    19   ar
     3    19    20   ar
     4    20    21   ar
     5    21    11    1
     6    11    12   ar
     7    12    13   ar
     8    13    14   ar
     9    14    10    1
    10     1    10    1
    11     1     2    1
    12     2     3    1
    13     3     4    1
    14     4     5   am
    15     5     6    2
    16     5    28    1
    17    28    29    1
    18    29    30   ar
    19    30    31   ar
    20    31    32   ar
    21    32    35    1
    22    35    36    1
    23    36    37    1
    24    36    38    1
    25    36    39    1
    26    32    33   ar
    27    33    34   ar
    28     4     7    1
    29     7     8    1
    30     8     9    1
    31    14    15   ar
    32    15    23    1
    33    23    24   am
    34    23    25    2
    35    15    16   ar
    36    21    22   ar
    37    22    18   ar
    38    16    11   ar
    39     8     1    1
    40    34    29   ar
    41    24    26    1
    42    24    27    1
@<TRIPOS>MOLECULE
*****
 39 42 0 0 0
SMALL
GASTEIGER

@<TRIPOS>ATOM
      1 C         142.7864  139.4445  158.5641 C.3     1  UNL1        0.2032
      2 C         142.7721  138.4676  159.7023 C.3     1  UNL1        0.0680
      3 C         143.4341  138.8200  161.0014 C.3     1  UNL1        0.0973
      4 N         144.1103  140.1492  161.1623 N.am    1  UNL1       -0.2762
      5 C         144.7723  140.5015  162.4614 C.2     1  UNL1        0.2301
      6 O         145.4485  141.8307  162.6224 O.2     1  UNL1       -0.2745
      7 C         144.1246  141.1261  160.0241 C.3     1  UNL1        0.1323
      8 C         143.4626  140.7738  158.7250 C.3     1  UNL1        0.2202
      9 F         143.4769  141.7507  157.5869 F       1  UNL1       -0.2316
     10 O         142.1244  139.0923  157.2650 O.3     1  UNL1       -0.4609
     11 C         142.7320  135.0136  155.4636 C.ar    1  UNL1        0.0387
     12 C         143.9154  135.8857  155.7615 C.ar    1  UNL1        0.1036
     13 N         143.7129  137.2453  156.3619 N.ar    1  UNL1       -0.2100
     14 C         142.3269  137.7326  156.6645 C.ar    1  UNL1        0.2292
     15 C         141.1435  136.8605  156.3666 C.ar    1  UNL1        0.1062
     16 C         141.3460  135.5010  155.7661 C.ar    1  UNL1        0.0123
     17 C         144.4512  130.0874  154.6523 C.3     1  UNL1        0.1321
     18 N         143.7247  131.3897  154.4902 N.ar    1  UNL1       -0.3059
     19 C         142.7674  131.7340  153.3878 C.ar    1  UNL1        0.1786
     20 N         142.2790  133.1334  153.6183 N.ar    1  UNL1       -0.2238
     21 C         142.9345  133.6540  154.8631 C.ar    1  UNL1        0.1017
     22 C         143.8279  132.5763  155.4019 C.ar    1  UNL1        0.0965
     23 C         139.7575  137.3479  156.6691 C.2     1  UNL1        0.2473
     24 N         139.5195  138.2502  157.8435 N.am    1  UNL1       -0.3252
     25 O         138.6096  136.9330  155.7973 O.2     1  UNL1       -0.2702
     26 H         140.2729  138.5225  158.4157 H       1  UNL1        0.1453
     27 H         138.6098  138.5701  158.0420 H       1  UNL1        0.1453
     28 C         144.7580  139.5246  163.5996 C.3     1  UNL1        0.1116
     29 C         143.9949  139.8425  164.8513 C.ar    1  UNL1       -0.0129
     30 C         143.6383  138.7463  165.8111 C.ar    1  UNL1       -0.0007
     31 C         142.8753  139.0642  167.0628 C.ar    1  UNL1        0.0369
     32 C         142.4690  140.4782  167.3547 C.ar    1  UNL1        0.1468
     33 C         142.8257  141.5744  166.3949 C.ar    1  UNL1        0.0369
     34 C         143.5886  141.2566  165.1432 C.ar    1  UNL1       -0.0007
     35 O         141.7060  140.7962  168.6064 O.3     1  UNL1       -0.4045
     36 C         141.6424  142.2085  169.1077 C.3     1  UNL1        0.5753
     37 F         141.5788  143.6209  169.6089 F       1  UNL1       -0.1328
     38 F         140.2844  142.3665  168.4904 F       1  UNL1       -0.1328
     39 F         143.0003  142.0506  169.7249 F       1  UNL1       -0.1328
@<TRIPOS>BOND
     1    17    18    1
     2    18    19   ar
     3    19    20   ar
     4    20    21   ar
     5    21    11    1
     6    11    12   ar
     7    12    13   ar
     8    13    14   ar
     9    14    10    1
    10     1    10    1
    11     1     2    1
    12     2     3    1
    13     3     4    1
    14     4     5   am
    15     5     6    2
    16     5    28    1
    17    28    29    1
    18    29    30   ar
    19    30    31   ar
    20    31    32   ar
    21    32    35    1
    22    35    36    1
    23    36    37    1
    24    36    38    1
    25    36    39    1
    26    32    33   ar
    27    33    34   ar
    28     4     7    1
    29     7     8    1
    30     8     9    1
    31    14    15   ar
    32    15    23    1
    33    23    24   am
    34    23    25    2
    35    15    16   ar
    36    21    22   ar
    37    22    18   ar
    38    16    11   ar
    39     8     1    1
    40    34    29   ar
    41    24    26    1
    42    24    27    1
@<TRIPOS>MOLECULE
*****
 39 42 0 0 0
SMALL
GASTEIGER

@<TRIPOS>ATOM
      1 C         139.5172  140.6333  160.6946 C.3     1  UNL1        0.2032
      2 C         139.2451  141.4759  161.9053 C.3     1  UNL1        0.0680
      3 C         138.9901  140.8231  163.2316 C.3     1  UNL1        0.0973
      4 N         139.0073  139.3277  163.3471 N.am    1  UNL1       -0.2762
      5 C         138.7524  138.6749  164.6733 C.2     1  UNL1        0.2301
      6 O         138.7696  137.1794  164.7888 O.2     1  UNL1       -0.2745
      7 C         139.2795  138.4850  162.1363 C.3     1  UNL1        0.1323
      8 C         139.5344  139.1378  160.8101 C.3     1  UNL1        0.2202
      9 F         139.8066  138.2951  159.5994 F       1  UNL1       -0.2316
     10 O         139.7722  141.2860  159.3684 O.3     1  UNL1       -0.4609
     11 C         143.9949  141.9516  157.9629 C.ar    1  UNL1        0.0387
     12 C         143.3683  140.5945  157.8386 C.ar    1  UNL1        0.1036
     13 N         141.9607  140.3727  158.3071 N.ar    1  UNL1       -0.2100
     14 C         141.1798  141.5079  158.8999 C.ar    1  UNL1        0.2292
     15 C         141.8065  142.8651  159.0242 C.ar    1  UNL1        0.1062
     16 C         143.2140  143.0869  158.5557 C.ar    1  UNL1        0.0123
     17 C         148.4143  141.7756  155.0785 C.3     1  UNL1        0.1321
     18 N         147.4339  142.0926  156.1686 N.ar    1  UNL1       -0.3059
     19 C         147.7033  142.9375  157.3785 C.ar    1  UNL1        0.1786
     20 N         146.4479  142.9875  158.1979 N.ar    1  UNL1       -0.2238
     21 C         145.4025  142.1735  157.4944 C.ar    1  UNL1        0.1017
     22 C         146.0119  141.6205  156.2403 C.ar    1  UNL1        0.0965
     23 C         141.0256  144.0003  159.6169 C.2     1  UNL1        0.2473
     24 N         139.5518  144.1113  159.3608 N.am    1  UNL1       -0.3252
     25 O         141.7184  145.0246  160.4658 O.2     1  UNL1       -0.2702
     26 H         139.0970  143.4390  158.8036 H       1  UNL1        0.1453
     27 H         139.0393  144.8564  159.7499 H       1  UNL1        0.1453
     28 C         138.4803  139.5176  165.8840 C.3     1  UNL1        0.1116
     29 C         139.5922  139.8426  166.8370 C.ar    1  UNL1       -0.0129
     30 C         139.3025  140.0064  168.2996 C.ar    1  UNL1       -0.0007
     31 C         140.4144  140.3313  169.2525 C.ar    1  UNL1        0.0369
     32 C         141.8159  140.4924  168.7429 C.ar    1  UNL1        0.1468
     33 C         142.1055  140.3286  167.2803 C.ar    1  UNL1        0.0369
     34 C         140.9937  140.0037  166.3273 C.ar    1  UNL1       -0.0007
     35 O         142.9278  140.8174  169.6959 O.3     1  UNL1       -0.4045
     36 C         143.0871  142.2162  170.2135 C.3     1  UNL1        0.5753
     37 F         143.2464  143.6150  170.7312 F       1  UNL1       -0.1328
     38 F         142.2061  141.8843  171.3813 F       1  UNL1       -0.1328
     39 F         143.9681  142.5480  169.0458 F       1  UNL1       -0.1328
@<TRIPOS>BOND
     1    17    18    1
     2    18    19   ar
     3    19    20   ar
     4    20    21   ar
     5    21    11    1
     6    11    12   ar
     7    12    13   ar
     8    13    14   ar
     9    14    10    1
    10     1    10    1
    11     1     2    1
    12     2     3    1
    13     3     4    1
    14     4     5   am
    15     5     6    2
    16     5    28    1
    17    28    29    1
    18    29    30   ar
    19    30    31   ar
    20    31    32   ar
    21    32    35    1
    22    35    36    1
    23    36    37    1
    24    36    38    1
    25    36    39    1
    26    32    33   ar
    27    33    34   ar
    28     4     7    1
    29     7     8    1
    30     8     9    1
    31    14    15   ar
    32    15    23    1
    33    23    24   am
    34    23    25    2
    35    15    16   ar
    36    21    22   ar
    37    22    18   ar
    38    16    11   ar
    39     8     1    1
    40    34    29   ar
    41    24    26    1
    42    24    27    1
@<TRIPOS>MOLECULE
*****
 39 42 0 0 0
SMALL
GASTEIGER

@<TRIPOS>ATOM
      1 C         142.0565  138.4736  159.0451 C.3     1  UNL1        0.2032
      2 C         143.2995  138.6873  159.8570 C.3     1  UNL1        0.0680
      3 C         143.2047  138.8481  161.3454 C.3     1  UNL1        0.0973
      4 N         141.8669  138.7952  162.0218 N.am    1  UNL1       -0.2762
      5 C         141.7721  138.9561  163.5101 C.2     1  UNL1        0.2301
      6 O         140.4343  138.9032  164.1865 O.2     1  UNL1       -0.2745
      7 C         140.6239  138.5815  161.2098 C.3     1  UNL1        0.1323
      8 C         140.7186  138.4207  159.7215 C.3     1  UNL1        0.2202
      9 F         139.4756  138.2070  158.9096 F       1  UNL1       -0.2316
     10 O         142.1512  138.3127  157.5568 O.3     1  UNL1       -0.4609
     11 C         142.1975  134.1974  155.7368 C.ar    1  UNL1        0.0387
     12 C         143.3086  134.6269  156.6483 C.ar    1  UNL1        0.1036
     13 N         143.2932  135.9986  157.2550 N.ar    1  UNL1       -0.2100
     14 C         142.1666  136.9409  156.9501 C.ar    1  UNL1        0.2292
     15 C         141.0555  136.5115  156.0386 C.ar    1  UNL1        0.1062
     16 C         141.0709  135.1397  155.4320 C.ar    1  UNL1        0.0123
     17 C         143.8572  129.7313  153.4609 C.3     1  UNL1        0.1321
     18 N         142.9758  130.7728  154.0841 N.ar    1  UNL1       -0.3059
     19 C         141.4973  130.6566  154.3092 C.ar    1  UNL1        0.1786
     20 N         141.0258  131.9254  154.9557 N.ar    1  UNL1       -0.2238
     21 C         142.2129  132.8256  155.1302 C.ar    1  UNL1        0.1017
     22 C         143.4180  132.1133  154.5915 C.ar    1  UNL1        0.0965
     23 C         139.9289  137.4537  155.7337 C.2     1  UNL1        0.2473
     24 N         140.2193  138.8873  155.4014 N.am    1  UNL1       -0.3252
     25 O         138.5120  136.9624  155.7612 O.2     1  UNL1       -0.2702
     26 H         141.1493  139.2098  155.3834 H       1  UNL1        0.1453
     27 H         139.4799  139.5058  155.2013 H       1  UNL1        0.1453
     28 C         143.0151  139.1698  164.3220 C.3     1  UNL1        0.1116
     29 C         142.9333  139.8604  165.6512 C.ar    1  UNL1       -0.0129
     30 C         143.1095  141.3476  165.7357 C.ar    1  UNL1       -0.0007
     31 C         143.0276  142.0382  167.0647 C.ar    1  UNL1        0.0369
     32 C         142.7695  141.2415  168.3092 C.ar    1  UNL1        0.1468
     33 C         142.5933  139.7543  168.2246 C.ar    1  UNL1        0.0369
     34 C         142.6752  139.0637  166.8956 C.ar    1  UNL1       -0.0007
     35 O         142.6877  141.9321  169.6383 O.3     1  UNL1       -0.4045
     36 C         141.7655  143.1011  169.8206 C.3     1  UNL1        0.5753
     37 F         140.8434  144.2700  170.0029 F       1  UNL1       -0.1328
     38 F         140.6969  142.3772  169.0563 F       1  UNL1       -0.1328
     39 F         142.8341  143.8249  170.5849 F       1  UNL1       -0.1328
@<TRIPOS>BOND
     1    17    18    1
     2    18    19   ar
     3    19    20   ar
     4    20    21   ar
     5    21    11    1
     6    11    12   ar
     7    12    13   ar
     8    13    14   ar
     9    14    10    1
    10     1    10    1
    11     1     2    1
    12     2     3    1
    13     3     4    1
    14     4     5   am
    15     5     6    2
    16     5    28    1
    17    28    29    1
    18    29    30   ar
    19    30    31   ar
    20    31    32   ar
    21    32    35    1
    22    35    36    1
    23    36    37    1
    24    36    38    1
    25    36    39    1
    26    32    33   ar
    27    33    34   ar
    28     4     7    1
    29     7     8    1
    30     8     9    1
    31    14    15   ar
    32    15    23    1
    33    23    24   am
    34    23    25    2
    35    15    16   ar
    36    21    22   ar
    37    22    18   ar
    38    16    11   ar
    39     8     1    1
    40    34    29   ar
    41    24    26    1
    42    24    27    1
@<TRIPOS>MOLECULE
*****
 39 42 0 0 0
SMALL
GASTEIGER

@<TRIPOS>ATOM
      1 C         140.0329  140.8754  159.6345 C.3     1  UNL1        0.2032
      2 C         140.3297  139.8490  160.6873 C.3     1  UNL1        0.0680
      3 C         139.7459  139.9937  162.0615 C.3     1  UNL1        0.0973
      4 N         138.8654  141.1647  162.3829 N.am    1  UNL1       -0.2762
      5 C         138.2816  141.3094  163.7570 C.2     1  UNL1        0.2301
      6 O         137.4011  142.4805  164.0784 O.2     1  UNL1       -0.2745
      7 C         138.5686  142.1911  161.3301 C.3     1  UNL1        0.1323
      8 C         139.1523  142.0465  159.9559 C.3     1  UNL1        0.2202
      9 F         138.8555  143.0729  158.9031 F       1  UNL1       -0.2316
     10 O         140.6166  140.7308  158.2604 O.3     1  UNL1       -0.4609
     11 C         141.7373  136.6580  156.7091 C.ar    1  UNL1        0.0387
     12 C         140.3401  137.1720  156.5258 C.ar    1  UNL1        0.1036
     13 N         139.9666  138.5296  157.0429 N.ar    1  UNL1       -0.2100
     14 C         140.9902  139.3731  157.7433 C.ar    1  UNL1        0.2292
     15 C         142.3874  138.8592  157.9265 C.ar    1  UNL1        0.1062
     16 C         142.7609  137.5016  157.4094 C.ar    1  UNL1        0.0123
     17 C         144.3538  132.1491  155.8697 C.3     1  UNL1        0.1321
     18 N         143.3135  133.2279  155.8061 N.ar    1  UNL1       -0.3059
     19 C         142.0578  133.1947  154.9862 C.ar    1  UNL1        0.1786
     20 N         141.3146  134.4756  155.2246 N.ar    1  UNL1       -0.2238
     21 C         142.1109  135.3004  156.1919 C.ar    1  UNL1        0.1017
     22 C         143.3462  134.5293  156.5513 C.ar    1  UNL1        0.0965
     23 C         143.4110  139.7027  158.6269 C.2     1  UNL1        0.2473
     24 N         143.6904  141.0960  158.1467 N.am    1  UNL1       -0.3252
     25 O         144.1553  139.1530  159.8075 O.2     1  UNL1       -0.2702
     26 H         143.2020  141.4568  157.3718 H       1  UNL1        0.1453
     27 H         144.3623  141.6496  158.6064 H       1  UNL1        0.1453
     28 C         138.5784  140.2829  164.8098 C.3     1  UNL1        0.1116
     29 C         139.3175  140.6770  166.0543 C.ar    1  UNL1       -0.0129
     30 C         139.2624  139.7989  167.2691 C.ar    1  UNL1       -0.0007
     31 C         140.0013  140.1929  168.5135 C.ar    1  UNL1        0.0369
     32 C         140.7954  141.4651  168.5431 C.ar    1  UNL1        0.1468
     33 C         140.8505  142.3433  167.3283 C.ar    1  UNL1        0.0369
     34 C         140.1115  141.9492  166.0839 C.ar    1  UNL1       -0.0007
     35 O         141.5344  141.8592  169.7876 O.3     1  UNL1       -0.4045
     36 C         142.9897  142.2152  169.7146 C.3     1  UNL1        0.5753
     37 F         144.4451  142.5712  169.6416 F       1  UNL1       -0.1328
     38 F         142.6985  143.5378  170.3594 F       1  UNL1       -0.1328
     39 F         143.2809  140.8925  169.0698 F       1  UNL1       -0.1328
@<TRIPOS>BOND
     1    17    18    1
     2    18    19   ar
     3    19    20   ar
     4    20    21   ar
     5    21    11    1
     6    11    12   ar
     7    12    13   ar
     8    13    14   ar
     9    14    10    1
    10     1    10    1
    11     1     2    1
    12     2     3    1
    13     3     4    1
    14     4     5   am
    15     5     6    2
    16     5    28    1
    17    28    29    1
    18    29    30   ar
    19    30    31   ar
    20    31    32   ar
    21    32    35    1
    22    35    36    1
    23    36    37    1
    24    36    38    1
    25    36    39    1
    26    32    33   ar
    27    33    34   ar
    28     4     7    1
    29     7     8    1
    30     8     9    1
    31    14    15   ar
    32    15    23    1
    33    23    24   am
    34    23    25    2
    35    15    16   ar
    36    21    22   ar
    37    22    18   ar
    38    16    11   ar
    39     8     1    1
    40    34    29   ar
    41    24    26    1
    42    24    27    1
@<TRIPOS>MOLECULE
*****
 39 42 0 0 0
SMALL
GASTEIGER

@<TRIPOS>ATOM
      1 C         143.3838  139.2532  160.3416 C.3     1  UNL1        0.2032
      2 C         144.2947  139.6184  161.4760 C.3     1  UNL1        0.0680
      3 C         143.9273  139.2473  162.8822 C.3     1  UNL1        0.0973
      4 N         142.6491  138.5111  163.1541 N.am    1  UNL1       -0.2762
      5 C         142.2817  138.1401  164.5602 C.2     1  UNL1        0.2301
      6 O         141.0034  137.4038  164.8321 O.2     1  UNL1       -0.2745
      7 C         141.7381  138.1458  162.0197 C.3     1  UNL1        0.1323
      8 C         142.1054  138.5168  160.6135 C.3     1  UNL1        0.2202
      9 F         141.1945  138.1516  159.4791 F       1  UNL1       -0.2316
     10 O         143.7511  139.6242  158.9355 O.3     1  UNL1       -0.4609
     11 C         141.9328  143.2687  157.0221 C.ar    1  UNL1        0.0387
     12 C         141.1479  142.4787  158.0269 C.ar    1  UNL1        0.1036
     13 N         141.7540  141.2639  158.6647 N.ar    1  UNL1       -0.2100
     14 C         143.1450  140.8391  158.2976 C.ar    1  UNL1        0.2292
     15 C         143.9299  141.6291  157.2928 C.ar    1  UNL1        0.1062
     16 C         143.3238  142.8439  156.6550 C.ar    1  UNL1        0.0123
     17 C         138.9950  147.5822  156.2193 C.3     1  UNL1        0.1321
     18 N         139.9764  146.4663  156.0152 N.ar    1  UNL1       -0.3059
     19 C         140.8119  146.2399  154.7902 C.ar    1  UNL1        0.1786
     20 N         141.6464  145.0146  155.0182 N.ar    1  UNL1       -0.2238
     21 C         141.3267  144.4836  156.3842 C.ar    1  UNL1        0.1017
     22 C         140.2946  145.3808  157.0004 C.ar    1  UNL1        0.0965
     23 C         145.3208  141.2043  156.9257 C.2     1  UNL1        0.2473
     24 N         145.5744  139.8093  156.4360 N.am    1  UNL1       -0.3252
     25 O         146.4582  142.1744  157.0482 O.2     1  UNL1       -0.2702
     26 H         144.8278  139.1726  156.3556 H       1  UNL1        0.1453
     27 H         146.4873  139.5305  156.1951 H       1  UNL1        0.1453
     28 C         143.1927  138.5053  165.6946 C.3     1  UNL1        0.1116
     29 C         142.6704  139.3129  166.8458 C.ar    1  UNL1       -0.0129
     30 C         142.9927  138.9077  168.2536 C.ar    1  UNL1       -0.0007
     31 C         142.4704  139.7152  169.4047 C.ar    1  UNL1        0.0369
     32 C         141.6258  140.9279  169.1480 C.ar    1  UNL1        0.1468
     33 C         141.3035  141.3331  167.7402 C.ar    1  UNL1        0.0369
     34 C         141.8258  140.5256  166.5891 C.ar    1  UNL1       -0.0007
     35 O         141.1035  141.7354  170.2992 O.3     1  UNL1       -0.4045
     36 C         140.7556  143.1814  170.1042 C.3     1  UNL1        0.5753
     37 F         140.4076  144.6274  169.9092 F       1  UNL1       -0.1328
     38 F         139.2987  142.8482  170.2324 F       1  UNL1       -0.1328
     39 F         142.2124  143.5147  169.9759 F       1  UNL1       -0.1328
@<TRIPOS>BOND
     1    17    18    1
     2    18    19   ar
     3    19    20   ar
     4    20    21   ar
     5    21    11    1
     6    11    12   ar
     7    12    13   ar
     8    13    14   ar
     9    14    10    1
    10     1    10    1
    11     1     2    1
    12     2     3    1
    13     3     4    1
    14     4     5   am
    15     5     6    2
    16     5    28    1
    17    28    29    1
    18    29    30   ar
    19    30    31   ar
    20    31    32   ar
    21    32    35    1
    22    35    36    1
    23    36    37    1
    24    36    38    1
    25    36    39    1
    26    32    33   ar
    27    33    34   ar
    28     4     7    1
    29     7     8    1
    30     8     9    1
    31    14    15   ar
    32    15    23    1
    33    23    24   am
    34    23    25    2
    35    15    16   ar
    36    21    22   ar
    37    22    18   ar
    38    16    11   ar
    39     8     1    1
    40    34    29   ar
    41    24    26    1
    42    24    27    1
@<TRIPOS>MOLECULE
*****
 39 42 0 0 0
SMALL
GASTEIGER

@<TRIPOS>ATOM
      1 C         139.5912  140.1101  158.3282 C.3     1  UNL1        0.2032
      2 C         139.6671  139.0542  159.3910 C.3     1  UNL1        0.0680
      3 C         139.0657  139.3053  160.7420 C.3     1  UNL1        0.0973
      4 N         138.3884  140.6122  161.0303 N.am    1  UNL1       -0.2762
      5 C         137.7870  140.8633  162.3814 C.2     1  UNL1        0.2301
      6 O         137.1096  142.1702  162.6697 O.2     1  UNL1       -0.2745
      7 C         138.3124  141.6681  159.9676 C.3     1  UNL1        0.1323
      8 C         138.9138  141.4171  158.6166 C.3     1  UNL1        0.2202
      9 F         138.8378  142.4729  157.5539 F       1  UNL1       -0.2316
     10 O         140.1925  139.8591  156.9772 O.3     1  UNL1       -0.4609
     11 C         142.0584  135.8703  156.0508 C.ar    1  UNL1        0.0387
     12 C         140.6300  136.1350  155.6772 C.ar    1  UNL1        0.1036
     13 N         140.0081  137.4646  155.9860 N.ar    1  UNL1       -0.2100
     14 C         140.8145  138.5294  156.6684 C.ar    1  UNL1        0.2292
     15 C         142.2429  138.2648  157.0420 C.ar    1  UNL1        0.1062
     16 C         142.8649  136.9352  156.7332 C.ar    1  UNL1        0.0123
     17 C         145.0919  131.5578  156.3355 C.3     1  UNL1        0.1321
     18 N         144.0748  132.5585  155.8729 N.ar    1  UNL1       -0.3059
     19 C         143.2003  132.4309  154.6607 C.ar    1  UNL1        0.1786
     20 N         142.3386  133.6560  154.5799 N.ar    1  UNL1       -0.2238
     21 C         142.6804  134.5407  155.7420 C.ar    1  UNL1        0.1017
     22 C         143.7534  133.8624  156.5411 C.ar    1  UNL1        0.0965
     23 C         143.0494  139.3297  157.7244 C.2     1  UNL1        0.2473
     24 N         143.1670  140.6920  157.1080 N.am    1  UNL1       -0.3252
     25 O         143.7381  139.0322  159.0233 O.2     1  UNL1       -0.2702
     26 H         142.7149  140.8873  156.2555 H       1  UNL1        0.1453
     27 H         143.6963  141.3909  157.5559 H       1  UNL1        0.1453
     28 C         137.8630  139.8074  163.4441 C.3     1  UNL1        0.1116
     29 C         138.5134  140.1138  164.7606 C.ar    1  UNL1       -0.0129
     30 C         139.4233  141.2993  164.8897 C.ar    1  UNL1       -0.0007
     31 C         140.0737  141.6057  166.2061 C.ar    1  UNL1        0.0369
     32 C         139.8143  140.7266  167.3934 C.ar    1  UNL1        0.1468
     33 C         138.9044  139.5411  167.2643 C.ar    1  UNL1        0.0369
     34 C         138.2540  139.2347  165.9479 C.ar    1  UNL1       -0.0007
     35 O         140.4647  141.0330  168.7100 O.3     1  UNL1       -0.4045
     36 C         140.0422  140.2942  169.9452 C.3     1  UNL1        0.5753
     37 F         139.6197  139.5555  171.1804 F       1  UNL1       -0.1328
     38 F         138.9112  141.2608  170.1364 F       1  UNL1       -0.1328
     39 F         141.1732  139.3277  169.7539 F       1  UNL1       -0.1328
@<TRIPOS>BOND
     1    17    18    1
     2    18    19   ar
     3    19    20   ar
     4    20    21   ar
     5    21    11    1
     6    11    12   ar
     7    12    13   ar
     8    13    14   ar
     9    14    10    1
    10     1    10    1
    11     1     2    1
    12     2     3    1
    13     3     4    1
    14     4     5   am
    15     5     6    2
    16     5    28    1
    17    28    29    1
    18    29    30   ar
    19    30    31   ar
    20    31    32   ar
    21    32    35    1
    22    35    36    1
    23    36    37    1
    24    36    38    1
    25    36    39    1
    26    32    33   ar
    27    33    34   ar
    28     4     7    1
    29     7     8    1
    30     8     9    1
    31    14    15   ar
    32    15    23    1
    33    23    24   am
    34    23    25    2
    35    15    16   ar
    36    21    22   ar
    37    22    18   ar
    38    16    11   ar
    39     8     1    1
    40    34    29   ar
    41    24    26    1
    42    24    27    1
@<TRIPOS>MOLECULE
*****
 39 42 0 0 0
SMALL
GASTEIGER

@<TRIPOS>ATOM
      1 C         143.0046  139.7059  158.5960 C.3     1  UNL1        0.2032
      2 C         143.1851  141.1242  159.0497 C.3     1  UNL1        0.0680
      3 C         143.6872  141.4107  160.4339 C.3     1  UNL1        0.0973
      4 N         144.0086  140.2790  161.3643 N.am    1  UNL1       -0.2762
      5 C         144.5106  140.5655  162.7485 C.2     1  UNL1        0.2301
      6 O         144.8321  139.4337  163.6790 O.2     1  UNL1       -0.2745
      7 C         143.8281  138.8607  160.9106 C.3     1  UNL1        0.1323
      8 C         143.3261  138.5741  159.5265 C.3     1  UNL1        0.2202
      9 F         143.1456  137.1558  159.0728 F       1  UNL1       -0.2316
     10 O         142.5027  139.4194  157.2118 O.3     1  UNL1       -0.4609
     11 C         142.8780  135.2768  155.4950 C.ar    1  UNL1        0.0387
     12 C         144.0851  136.1624  155.5876 C.ar    1  UNL1        0.1036
     13 N         143.9599  137.5432  156.1599 N.ar    1  UNL1       -0.2100
     14 C         142.6277  138.0385  156.6395 C.ar    1  UNL1        0.2292
     15 C         141.4207  137.1528  156.5469 C.ar    1  UNL1        0.1062
     16 C         141.5458  135.7720  155.9746 C.ar    1  UNL1        0.0123
     17 C         144.2504  130.2214  154.8304 C.3     1  UNL1        0.1321
     18 N         143.6339  131.5722  154.6172 N.ar    1  UNL1       -0.3059
     19 C         142.7572  131.9696  153.4667 C.ar    1  UNL1        0.1786
     20 N         142.3674  133.4057  153.6555 N.ar    1  UNL1       -0.2238
     21 C         143.0031  133.8958  154.9227 C.ar    1  UNL1        0.1017
     22 C         143.7858  132.7627  155.5170 C.ar    1  UNL1        0.0965
     23 C         140.0885  137.6481  157.0265 C.2     1  UNL1        0.2473
     24 N         138.9487  137.7881  156.0615 N.am    1  UNL1       -0.3252
     25 O         139.8961  138.0033  158.4710 O.2     1  UNL1       -0.2702
     26 H         139.0749  137.5549  155.1134 H       1  UNL1        0.1453
     27 H         138.0743  138.1131  156.3763 H       1  UNL1        0.1453
     28 C         144.6911  141.9838  163.2022 C.3     1  UNL1        0.1116
     29 C         143.4919  142.8359  163.4953 C.ar    1  UNL1       -0.0129
     30 C         142.2184  142.2007  163.9696 C.ar    1  UNL1       -0.0007
     31 C         141.0192  143.0527  164.2627 C.ar    1  UNL1        0.0369
     32 C         141.0934  144.5398  164.0815 C.ar    1  UNL1        0.1468
     33 C         142.3669  145.1750  163.6072 C.ar    1  UNL1        0.0369
     34 C         143.5661  144.3230  163.3141 C.ar    1  UNL1       -0.0007
     35 O         139.8942  145.3919  164.3746 O.3     1  UNL1       -0.4045
     36 C         138.5820  144.7489  164.7131 C.3     1  UNL1        0.5753
     37 F         137.2698  144.1059  165.0517 F       1  UNL1       -0.1328
     38 F         138.9064  144.8559  166.1737 F       1  UNL1       -0.1328
     39 F         138.2575  144.6419  163.2526 F       1  UNL1       -0.1328
@<TRIPOS>BOND
     1    17    18    1
     2    18    19   ar
     3    19    20   ar
     4    20    21   ar
     5    21    11    1
     6    11    12   ar
     7    12    13   ar
     8    13    14   ar
     9    14    10    1
    10     1    10    1
    11     1     2    1
    12     2     3    1
    13     3     4    1
    14     4     5   am
    15     5     6    2
    16     5    28    1
    17    28    29    1
    18    29    30   ar
    19    30    31   ar
    20    31    32   ar
    21    32    35    1
    22    35    36    1
    23    36    37    1
    24    36    38    1
    25    36    39    1
    26    32    33   ar
    27    33    34   ar
    28     4     7    1
    29     7     8    1
    30     8     9    1
    31    14    15   ar
    32    15    23    1
    33    23    24   am
    34    23    25    2
    35    15    16   ar
    36    21    22   ar
    37    22    18   ar
    38    16    11   ar
    39     8     1    1
    40    34    29   ar
    41    24    26    1
    42    24    27    1
