@<TRIPOS>MOLECULE
*****
 30 34 0 0 0
SMALL
GASTEIGER

@<TRIPOS>ATOM
      1 O         138.8167  139.5102  168.5721 O.2     1  UNL1       -0.2751
      2 C         140.2491  139.8747  168.3168 C.2     1  UNL1        0.2220
      3 N         141.3408  139.9326  169.3439 N.am    1  UNL1       -0.3040
      4 C         142.6078  140.3390  168.6514 C.3     1  UNL1        0.0941
      5 C         142.2992  140.5324  167.1962 C.3     1  UNL1        0.0501
      6 C         140.8415  140.2454  166.9894 C.3     1  UNL1        0.0768
      7 C         141.5706  140.6330  165.7372 C.3     1  UNL1        0.0264
      8 C         140.8345  140.7042  164.4323 C.3     1  UNL1        0.0728
      9 N         139.3692  140.3878  164.3795 N.3     1  UNL1       -0.2715
     10 C         138.6400  140.0002  165.6317 C.3     1  UNL1        0.0728
     11 C         139.3761  139.9290  166.9367 C.3     1  UNL1        0.0264
     12 H         141.2429  139.7380  170.3040 H       1  UNL1        0.1494
     13 C         143.2767  140.9409  166.1344 C.ar    1  UNL1       -0.0204
     14 C         143.5491  142.3948  165.8851 C.ar    1  UNL1       -0.0042
     15 C         144.5266  142.8033  164.8232 C.ar    1  UNL1       -0.0003
     16 C         145.2316  141.7581  164.0106 C.ar    1  UNL1       -0.0000
     17 C         144.9592  140.3042  164.2599 C.ar    1  UNL1       -0.0003
     18 C         143.9817  139.8957  165.3218 C.ar    1  UNL1       -0.0042
     19 C         138.6330  140.4591  163.0744 C.3     1  UNL1        0.0691
     20 C         138.7837  138.9726  163.2077 C.3     1  UNL1        0.0510
     21 C         138.2348  138.0650  162.1471 C.3     1  UNL1        0.1438
     22 O         137.5351  138.6438  160.9532 O.3     1  UNL1       -0.3537
     23 C         137.3844  140.1303  160.8200 C.3     1  UNL1        0.1438
     24 C         137.9333  141.0379  161.8805 C.3     1  UNL1        0.0510
     25 C         138.7379  141.9207  163.3944 C.ar    1  UNL1       -0.0091
     26 C         137.7749  142.5486  164.3579 C.ar    1  UNL1       -0.0030
     27 C         137.8799  144.0104  164.6778 C.ar    1  UNL1       -0.0003
     28 C         138.9479  144.8442  164.0343 C.ar    1  UNL1       -0.0000
     29 C         139.9108  144.2164  163.0709 C.ar    1  UNL1       -0.0003
     30 C         139.8059  142.7546  162.7509 C.ar    1  UNL1       -0.0030
@<TRIPOS>BOND
     1     1     2    2
     2     2     3   am
     3     3     4    1
     4     4     5    1
     5     5    13    1
     6    13    14   ar
     7    14    15   ar
     8    15    16   ar
     9    16    17   ar
    10    17    18   ar
    11     5     6    1
    12     6     7    1
    13     7     8    1
    14     8     9    1
    15     9    19    1
    16    19    25    1
    17    25    26   ar
    18    26    27   ar
    19    27    28   ar
    20    28    29   ar
    21    29    30   ar
    22    19    20    1
    23    20    21    1
    24    21    22    1
    25    22    23    1
    26    23    24    1
    27     9    10    1
    28    10    11    1
    29     6     2    1
    30    24    19    1
    31    18    13   ar
    32    11     6    1
    33    30    25   ar
    34     3    12    1
@<TRIPOS>MOLECULE
*****
 30 34 0 0 0
SMALL
GASTEIGER

@<TRIPOS>ATOM
      1 O         138.7868  145.1369  165.3375 O.2     1  UNL1       -0.2751
      2 C         138.6013  144.1777  164.1994 C.2     1  UNL1        0.2220
      3 N         137.9011  144.4696  162.9054 N.am    1  UNL1       -0.3040
      4 C         137.9505  143.2303  162.0617 C.3     1  UNL1        0.0941
      5 C         138.6812  142.1724  162.8344 C.3     1  UNL1        0.0501
      6 C         139.0834  142.7579  164.1555 C.3     1  UNL1        0.0768
      7 C         139.5023  141.3298  163.9682 C.3     1  UNL1        0.0264
      8 C         140.2546  140.6202  165.0547 C.3     1  UNL1        0.0728
      9 N         140.5879  141.3386  166.3285 N.3     1  UNL1       -0.2715
     10 C         140.1691  142.7667  166.5159 C.3     1  UNL1        0.0728
     11 C         139.4168  143.4763  165.4294 C.3     1  UNL1        0.0264
     12 H         137.4826  145.3246  162.6539 H       1  UNL1        0.1494
     13 C         138.9606  140.7745  162.3678 C.ar    1  UNL1       -0.0204
     14 C         140.2480  140.4618  161.6643 C.ar    1  UNL1       -0.0042
     15 C         140.5274  139.0639  161.1977 C.ar    1  UNL1       -0.0003
     16 C         139.5194  137.9786  161.4345 C.ar    1  UNL1       -0.0000
     17 C         138.2320  138.2913  162.1380 C.ar    1  UNL1       -0.0003
     18 C         137.9526  139.6892  162.6046 C.ar    1  UNL1       -0.0042
     19 C         141.3402  140.6289  167.4150 C.3     1  UNL1        0.0691
     20 C         139.9767  140.6870  168.0375 C.3     1  UNL1        0.0510
     21 C         139.7482  140.1009  169.3991 C.3     1  UNL1        0.1438
     22 O         140.8832  139.4566  170.1384 O.3     1  UNL1       -0.3537
     23 C         142.2468  139.3985  169.5160 C.3     1  UNL1        0.1438
     24 C         142.4753  139.9846  168.1543 C.3     1  UNL1        0.0510
     25 C         142.4425  140.8172  166.4153 C.ar    1  UNL1       -0.0091
     26 C         142.9941  142.1879  166.1564 C.ar    1  UNL1       -0.0030
     27 C         144.0964  142.3762  165.1567 C.ar    1  UNL1       -0.0003
     28 C         144.6470  141.1939  164.4158 C.ar    1  UNL1       -0.0000
     29 C         144.0954  139.8233  164.6746 C.ar    1  UNL1       -0.0003
     30 C         142.9931  139.6349  165.6744 C.ar    1  UNL1       -0.0030
@<TRIPOS>BOND
     1     1     2    2
     2     2     3   am
     3     3     4    1
     4     4     5    1
     5     5    13    1
     6    13    14   ar
     7    14    15   ar
     8    15    16   ar
     9    16    17   ar
    10    17    18   ar
    11     5     6    1
    12     6     7    1
    13     7     8    1
    14     8     9    1
    15     9    19    1
    16    19    25    1
    17    25    26   ar
    18    26    27   ar
    19    27    28   ar
    20    28    29   ar
    21    29    30   ar
    22    19    20    1
    23    20    21    1
    24    21    22    1
    25    22    23    1
    26    23    24    1
    27     9    10    1
    28    10    11    1
    29     6     2    1
    30    24    19    1
    31    18    13   ar
    32    11     6    1
    33    30    25   ar
    34     3    12    1
@<TRIPOS>MOLECULE
*****
 30 34 0 0 0
SMALL
GASTEIGER

@<TRIPOS>ATOM
      1 O         145.1928  143.8284  165.4710 O.2     1  UNL1       -0.2751
      2 C         144.0605  144.0353  164.5092 C.2     1  UNL1        0.2220
      3 N         144.1282  144.7958  163.2180 N.am    1  UNL1       -0.3040
      4 C         142.7711  144.7485  162.5805 C.3     1  UNL1        0.0941
      5 C         141.8648  143.9587  163.4778 C.3     1  UNL1        0.0501
      6 C         142.6617  143.5179  164.6697 C.3     1  UNL1        0.0768
      7 C         141.2305  143.0694  164.6929 C.3     1  UNL1        0.0264
      8 C         140.7185  142.2545  165.8434 C.3     1  UNL1        0.0728
      9 N         141.6377  141.8879  166.9707 N.3     1  UNL1       -0.2715
     10 C         143.0688  142.3364  166.9475 C.3     1  UNL1        0.0728
     11 C         143.5808  143.1514  165.7970 C.3     1  UNL1        0.0264
     12 H         144.9235  145.2468  162.8531 H       1  UNL1        0.1494
     13 C         140.4160  143.6618  163.2270 C.ar    1  UNL1       -0.0204
     14 C         139.3605  144.6057  163.7219 C.ar    1  UNL1       -0.0042
     15 C         137.9117  144.3088  163.4712 C.ar    1  UNL1       -0.0003
     16 C         137.5184  143.0681  162.7255 C.ar    1  UNL1       -0.0000
     17 C         138.5740  142.1242  162.2306 C.ar    1  UNL1       -0.0003
     18 C         140.0228  142.4211  162.4813 C.ar    1  UNL1       -0.0042
     19 C         141.1256  141.0729  168.1212 C.3     1  UNL1        0.0691
     20 C         141.0580  142.4451  168.7235 C.3     1  UNL1        0.0510
     21 C         140.5636  142.6240  170.1283 C.3     1  UNL1        0.1438
     22 O         140.1368  141.4308  170.9308 O.3     1  UNL1       -0.3537
     23 C         140.2044  140.0587  170.3285 C.3     1  UNL1        0.1438
     24 C         140.6987  139.8797  168.9237 C.3     1  UNL1        0.0510
     25 C         141.3710  139.9839  167.1193 C.ar    1  UNL1       -0.0091
     26 C         140.2462  139.4886  166.2592 C.ar    1  UNL1       -0.0030
     27 C         140.4917  138.3996  165.2574 C.ar    1  UNL1       -0.0003
     28 C         141.8619  137.8057  165.1156 C.ar    1  UNL1       -0.0000
     29 C         142.9865  138.3010  165.9757 C.ar    1  UNL1       -0.0003
     30 C         142.7411  139.3900  166.9776 C.ar    1  UNL1       -0.0030
@<TRIPOS>BOND
     1     1     2    2
     2     2     3   am
     3     3     4    1
     4     4     5    1
     5     5    13    1
     6    13    14   ar
     7    14    15   ar
     8    15    16   ar
     9    16    17   ar
    10    17    18   ar
    11     5     6    1
    12     6     7    1
    13     7     8    1
    14     8     9    1
    15     9    19    1
    16    19    25    1
    17    25    26   ar
    18    26    27   ar
    19    27    28   ar
    20    28    29   ar
    21    29    30   ar
    22    19    20    1
    23    20    21    1
    24    21    22    1
    25    22    23    1
    26    23    24    1
    27     9    10    1
    28    10    11    1
    29     6     2    1
    30    24    19    1
    31    18    13   ar
    32    11     6    1
    33    30    25   ar
    34     3    12    1
@<TRIPOS>MOLECULE
*****
 30 34 0 0 0
SMALL
GASTEIGER

@<TRIPOS>ATOM
      1 O         138.6070  144.9539  165.7776 O.2     1  UNL1       -0.2751
      2 C         139.5402  144.7050  164.6300 C.2     1  UNL1        0.2220
      3 N         139.5493  145.4441  163.3248 N.am    1  UNL1       -0.3040
      4 C         140.6430  144.8692  162.4741 C.3     1  UNL1        0.0941
      5 C         141.3097  143.7747  163.2537 C.3     1  UNL1        0.0501
      6 C         140.6282  143.6732  164.5861 C.3     1  UNL1        0.0768
      7 C         141.7481  142.6934  164.3975 C.3     1  UNL1        0.0264
      8 C         142.0938  141.7294  165.4935 C.3     1  UNL1        0.0728
      9 N         141.3196  141.7454  166.7781 N.3     1  UNL1       -0.2715
     10 C         140.1997  142.7252  166.9668 C.3     1  UNL1        0.0728
     11 C         139.8540  143.6891  165.8707 C.3     1  UNL1        0.0264
     12 H         138.9439  146.1778  163.0710 H       1  UNL1        0.1494
     13 C         142.4566  142.9301  162.7834 C.ar    1  UNL1       -0.0204
     14 C         143.8669  143.3570  163.0640 C.ar    1  UNL1       -0.0042
     15 C         145.0138  142.5123  162.5937 C.ar    1  UNL1       -0.0003
     16 C         144.7504  141.2408  161.8428 C.ar    1  UNL1       -0.0000
     17 C         143.3400  140.8138  161.5623 C.ar    1  UNL1       -0.0003
     18 C         142.1932  141.6585  162.0326 C.ar    1  UNL1       -0.0042
     19 C         141.6653  140.7814  167.8742 C.3     1  UNL1        0.0691
     20 C         142.5349  141.9403  168.2626 C.3     1  UNL1        0.0510
     21 C         143.4065  141.8490  169.4799 C.3     1  UNL1        0.1438
     22 O         143.4086  140.5989  170.3089 O.3     1  UNL1       -0.3537
     23 C         142.5390  139.4400  169.9204 C.3     1  UNL1        0.1438
     24 C         141.6674  139.5312  168.7031 C.3     1  UNL1        0.0510
     25 C         140.6757  139.9573  167.1051 C.ar    1  UNL1       -0.0091
     26 C         141.1097  139.2217  165.8720 C.ar    1  UNL1       -0.0030
     27 C         140.1200  138.3976  165.1029 C.ar    1  UNL1       -0.0003
     28 C         138.6964  138.3091  165.5669 C.ar    1  UNL1       -0.0000
     29 C         138.2624  139.0447  166.8000 C.ar    1  UNL1       -0.0003
     30 C         139.2520  139.8688  167.5691 C.ar    1  UNL1       -0.0030
@<TRIPOS>BOND
     1     1     2    2
     2     2     3   am
     3     3     4    1
     4     4     5    1
     5     5    13    1
     6    13    14   ar
     7    14    15   ar
     8    15    16   ar
     9    16    17   ar
    10    17    18   ar
    11     5     6    1
    12     6     7    1
    13     7     8    1
    14     8     9    1
    15     9    19    1
    16    19    25    1
    17    25    26   ar
    18    26    27   ar
    19    27    28   ar
    20    28    29   ar
    21    29    30   ar
    22    19    20    1
    23    20    21    1
    24    21    22    1
    25    22    23    1
    26    23    24    1
    27     9    10    1
    28    10    11    1
    29     6     2    1
    30    24    19    1
    31    18    13   ar
    32    11     6    1
    33    30    25   ar
    34     3    12    1
@<TRIPOS>MOLECULE
*****
 30 34 0 0 0
SMALL
GASTEIGER

@<TRIPOS>ATOM
      1 O         145.3022  142.5308  163.2004 O.2     1  UNL1       -0.2751
      2 C         143.9491  143.1004  162.8932 C.2     1  UNL1        0.2220
      3 N         143.5990  143.9521  161.7091 N.am    1  UNL1       -0.3040
      4 C         142.1419  144.2965  161.8002 C.3     1  UNL1        0.0941
      5 C         141.5914  143.6577  163.0408 C.3     1  UNL1        0.0501
      6 C         142.7083  142.9185  163.7163 C.3     1  UNL1        0.0768
      7 C         141.3937  142.8249  164.4327 C.3     1  UNL1        0.0264
      8 C         141.2883  142.0414  165.7074 C.3     1  UNL1        0.0728
      9 N         142.4975  141.3514  166.2657 N.3     1  UNL1       -0.2715
     10 C         143.8121  141.4449  165.5494 C.3     1  UNL1        0.0728
     11 C         143.9174  142.2284  164.2747 C.3     1  UNL1        0.0264
     12 H         144.2171  144.2353  160.9970 H       1  UNL1        0.1494
     13 C         140.1731  143.7431  163.5215 C.ar    1  UNL1       -0.0204
     14 C         139.7901  144.7653  164.5502 C.ar    1  UNL1       -0.0042
     15 C         138.3718  144.8507  165.0308 C.ar    1  UNL1       -0.0003
     16 C         137.3364  143.9139  164.4828 C.ar    1  UNL1       -0.0000
     17 C         137.7194  142.8915  163.4540 C.ar    1  UNL1       -0.0003
     18 C         139.1377  142.8062  162.9734 C.ar    1  UNL1       -0.0042
     19 C         142.3921  140.5678  167.5405 C.3     1  UNL1        0.0691
     20 C         143.0815  141.7996  168.0481 C.3     1  UNL1        0.0510
     21 C         143.4387  141.9145  169.5004 C.3     1  UNL1        0.1438
     22 O         143.1066  140.7977  170.4451 O.3     1  UNL1       -0.3537
     23 C         142.4172  139.5660  169.9375 C.3     1  UNL1        0.1438
     24 C         142.0600  139.4510  168.4852 C.3     1  UNL1        0.0510
     25 C         141.7394  139.6082  166.5902 C.ar    1  UNL1       -0.0091
     26 C         142.5802  138.6699  165.7763 C.ar    1  UNL1       -0.0030
     27 C         141.9274  137.7103  164.8260 C.ar    1  UNL1       -0.0003
     28 C         140.4338  137.6890  164.6896 C.ar    1  UNL1       -0.0000
     29 C         139.5930  138.6273  165.5034 C.ar    1  UNL1       -0.0003
     30 C         140.2457  139.5870  166.4538 C.ar    1  UNL1       -0.0030
@<TRIPOS>BOND
     1     1     2    2
     2     2     3   am
     3     3     4    1
     4     4     5    1
     5     5    13    1
     6    13    14   ar
     7    14    15   ar
     8    15    16   ar
     9    16    17   ar
    10    17    18   ar
    11     5     6    1
    12     6     7    1
    13     7     8    1
    14     8     9    1
    15     9    19    1
    16    19    25    1
    17    25    26   ar
    18    26    27   ar
    19    27    28   ar
    20    28    29   ar
    21    29    30   ar
    22    19    20    1
    23    20    21    1
    24    21    22    1
    25    22    23    1
    26    23    24    1
    27     9    10    1
    28    10    11    1
    29     6     2    1
    30    24    19    1
    31    18    13   ar
    32    11     6    1
    33    30    25   ar
    34     3    12    1
@<TRIPOS>MOLECULE
*****
 30 34 0 0 0
SMALL
GASTEIGER

@<TRIPOS>ATOM
      1 O         138.4696  138.7548  164.7643 O.2     1  UNL1       -0.2751
      2 C         138.8072  139.2434  166.1417 C.2     1  UNL1        0.2220
      3 N         138.0881  138.8801  167.4070 N.am    1  UNL1       -0.3040
      4 C         138.7596  139.5933  168.5430 C.3     1  UNL1        0.0941
      5 C         139.8938  140.3974  167.9797 C.3     1  UNL1        0.0501
      6 C         139.9232  140.1812  166.4956 C.3     1  UNL1        0.0768
      7 C         140.9919  141.1057  166.9987 C.3     1  UNL1        0.0264
      8 C         141.9661  141.7194  166.0374 C.3     1  UNL1        0.0728
      9 N         141.8717  141.4086  164.5730 N.3     1  UNL1       -0.2715
     10 C         140.8030  140.4841  164.0699 C.3     1  UNL1        0.0728
     11 C         139.8288  139.8704  165.0312 C.3     1  UNL1        0.0264
     12 H         137.3117  138.2791  167.4792 H       1  UNL1        0.1494
     13 C         140.8336  141.2654  168.7630 C.ar    1  UNL1       -0.0204
     14 C         140.4487  142.6759  169.0980 C.ar    1  UNL1       -0.0042
     15 C         141.3884  143.5438  169.8813 C.ar    1  UNL1       -0.0003
     16 C         142.7130  143.0012  170.3296 C.ar    1  UNL1       -0.0000
     17 C         143.0980  141.5906  169.9945 C.ar    1  UNL1       -0.0003
     18 C         142.1582  140.7228  169.2113 C.ar    1  UNL1       -0.0042
     19 C         142.8460  142.0224  163.6117 C.3     1  UNL1        0.0691
     20 C         143.6929  140.9180  164.1715 C.3     1  UNL1        0.0510
     21 C         145.1024  140.7370  163.6915 C.3     1  UNL1        0.1438
     22 O         145.6651  141.6602  162.6518 O.3     1  UNL1       -0.3537
     23 C         144.8182  142.7645  162.0920 C.3     1  UNL1        0.1438
     24 C         143.4087  142.9456  162.5720 C.3     1  UNL1        0.0510
     25 C         141.6608  142.9135  163.3858 C.ar    1  UNL1       -0.0091
     26 C         141.2843  143.9365  164.4163 C.ar    1  UNL1       -0.0030
     27 C         140.0991  144.8276  164.1903 C.ar    1  UNL1       -0.0003
     28 C         139.2903  144.6957  162.9339 C.ar    1  UNL1       -0.0000
     29 C         139.6667  143.6728  161.9035 C.ar    1  UNL1       -0.0003
     30 C         140.8520  142.7816  162.1294 C.ar    1  UNL1       -0.0030
@<TRIPOS>BOND
     1     1     2    2
     2     2     3   am
     3     3     4    1
     4     4     5    1
     5     5    13    1
     6    13    14   ar
     7    14    15   ar
     8    15    16   ar
     9    16    17   ar
    10    17    18   ar
    11     5     6    1
    12     6     7    1
    13     7     8    1
    14     8     9    1
    15     9    19    1
    16    19    25    1
    17    25    26   ar
    18    26    27   ar
    19    27    28   ar
    20    28    29   ar
    21    29    30   ar
    22    19    20    1
    23    20    21    1
    24    21    22    1
    25    22    23    1
    26    23    24    1
    27     9    10    1
    28    10    11    1
    29     6     2    1
    30    24    19    1
    31    18    13   ar
    32    11     6    1
    33    30    25   ar
    34     3    12    1
@<TRIPOS>MOLECULE
*****
 30 34 0 0 0
SMALL
GASTEIGER

@<TRIPOS>ATOM
      1 O         138.6447  137.1341  163.5209 O.2     1  UNL1       -0.2751
      2 C         138.4337  138.5224  162.9936 C.2     1  UNL1        0.2220
      3 N         137.6716  138.8886  161.7546 N.am    1  UNL1       -0.3040
      4 C         137.7147  140.3809  161.6080 C.3     1  UNL1        0.0941
      5 C         138.5034  140.9369  162.7565 C.3     1  UNL1        0.0501
      6 C         138.9477  139.7883  163.6129 C.3     1  UNL1        0.0768
      7 C         139.3926  141.1304  164.1135 C.3     1  UNL1        0.0264
      8 C         140.2079  141.2302  165.3686 C.3     1  UNL1        0.0728
      9 N         140.5782  139.9878  166.1231 N.3     1  UNL1       -0.2715
     10 C         140.1333  138.6456  165.6225 C.3     1  UNL1        0.0728
     11 C         139.3181  138.5459  164.3674 C.3     1  UNL1        0.0264
     12 H         137.2222  138.2600  161.1447 H       1  UNL1        0.1494
     13 C         138.7963  142.3869  163.0050 C.ar    1  UNL1       -0.0204
     14 C         139.9673  143.0412  162.3337 C.ar    1  UNL1       -0.0042
     15 C         140.2601  144.4912  162.5822 C.ar    1  UNL1       -0.0003
     16 C         139.3820  145.2868  163.5019 C.ar    1  UNL1       -0.0000
     17 C         138.2110  144.6324  164.1732 C.ar    1  UNL1       -0.0003
     18 C         137.9182  143.1825  163.9247 C.ar    1  UNL1       -0.0042
     19 C         141.3935  140.0876  167.3784 C.3     1  UNL1        0.0691
     20 C         140.0142  140.0439  167.9664 C.3     1  UNL1        0.0510
     21 C         139.8308  140.1031  169.4539 C.3     1  UNL1        0.1438
     22 O         141.0267  140.2060  170.3535 O.3     1  UNL1       -0.3537
     23 C         142.4060  140.2497  169.7655 C.3     1  UNL1        0.1438
     24 C         142.5893  140.1905  168.2779 C.3     1  UNL1        0.0510
     25 C         142.4895  140.0966  166.3545 C.ar    1  UNL1       -0.0091
     26 C         143.0088  141.3997  165.8231 C.ar    1  UNL1       -0.0030
     27 C         144.1049  141.4087  164.7992 C.ar    1  UNL1       -0.0003
     28 C         144.6818  140.1146  164.3066 C.ar    1  UNL1       -0.0000
     29 C         144.1626  138.8116  164.8379 C.ar    1  UNL1       -0.0003
     30 C         143.0664  138.8026  165.8619 C.ar    1  UNL1       -0.0030
@<TRIPOS>BOND
     1     1     2    2
     2     2     3   am
     3     3     4    1
     4     4     5    1
     5     5    13    1
     6    13    14   ar
     7    14    15   ar
     8    15    16   ar
     9    16    17   ar
    10    17    18   ar
    11     5     6    1
    12     6     7    1
    13     7     8    1
    14     8     9    1
    15     9    19    1
    16    19    25    1
    17    25    26   ar
    18    26    27   ar
    19    27    28   ar
    20    28    29   ar
    21    29    30   ar
    22    19    20    1
    23    20    21    1
    24    21    22    1
    25    22    23    1
    26    23    24    1
    27     9    10    1
    28    10    11    1
    29     6     2    1
    30    24    19    1
    31    18    13   ar
    32    11     6    1
    33    30    25   ar
    34     3    12    1
@<TRIPOS>MOLECULE
*****
 30 34 0 0 0
SMALL
GASTEIGER

@<TRIPOS>ATOM
      1 O         145.0583  139.5932  164.4234 O.2     1  UNL1       -0.2751
      2 C         144.6241  140.8394  163.7104 C.2     1  UNL1        0.2220
      3 N         145.5081  141.7536  162.9150 N.am    1  UNL1       -0.3040
      4 C         144.6599  142.8695  162.3807 C.3     1  UNL1        0.0941
      5 C         143.2516  142.6449  162.8460 C.3     1  UNL1        0.0501
      6 C         143.2295  141.3903  163.6679 C.3     1  UNL1        0.0768
      7 C         141.8924  142.0573  163.5366 C.3     1  UNL1        0.0264
      8 C         140.6874  141.4586  164.1994 C.3     1  UNL1        0.0728
      9 N         140.8194  140.1929  164.9935 N.3     1  UNL1       -0.2715
     10 C         142.1564  139.5259  165.1248 C.3     1  UNL1        0.0728
     11 C         143.3615  140.1246  164.4620 C.3     1  UNL1        0.0264
     12 H         146.4752  141.6410  162.7691 H       1  UNL1        0.1494
     13 C         142.0726  143.5211  162.5427 C.ar    1  UNL1       -0.0204
     14 C         141.2174  143.2391  161.3431 C.ar    1  UNL1       -0.0042
     15 C         140.0383  144.1153  161.0398 C.ar    1  UNL1       -0.0003
     16 C         139.7144  145.2736  161.9361 C.ar    1  UNL1       -0.0000
     17 C         140.5697  145.5557  163.1358 C.ar    1  UNL1       -0.0003
     18 C         141.7487  144.6795  163.4390 C.ar    1  UNL1       -0.0042
     19 C         139.6142  139.5943  165.6564 C.3     1  UNL1        0.0691
     20 C         140.3205  140.1534  166.8559 C.3     1  UNL1        0.0510
     21 C         139.7217  139.9920  168.2216 C.3     1  UNL1        0.1438
     22 O         138.4167  139.2714  168.3880 O.3     1  UNL1       -0.3537
     23 C         137.7105  138.7122  167.1885 C.3     1  UNL1        0.1438
     24 C         138.3092  138.8737  165.8228 C.3     1  UNL1        0.0510
     25 C         139.3266  139.2431  164.2268 C.ar    1  UNL1       -0.0091
     26 C         138.2790  139.9994  163.4648 C.ar    1  UNL1       -0.0030
     27 C         137.9913  139.6482  162.0352 C.ar    1  UNL1       -0.0003
     28 C         138.7512  138.5406  161.3675 C.ar    1  UNL1       -0.0000
     29 C         139.7987  137.7843  162.1294 C.ar    1  UNL1       -0.0003
     30 C         140.0864  138.1355  163.5591 C.ar    1  UNL1       -0.0030
@<TRIPOS>BOND
     1     1     2    2
     2     2     3   am
     3     3     4    1
     4     4     5    1
     5     5    13    1
     6    13    14   ar
     7    14    15   ar
     8    15    16   ar
     9    16    17   ar
    10    17    18   ar
    11     5     6    1
    12     6     7    1
    13     7     8    1
    14     8     9    1
    15     9    19    1
    16    19    25    1
    17    25    26   ar
    18    26    27   ar
    19    27    28   ar
    20    28    29   ar
    21    29    30   ar
    22    19    20    1
    23    20    21    1
    24    21    22    1
    25    22    23    1
    26    23    24    1
    27     9    10    1
    28    10    11    1
    29     6     2    1
    30    24    19    1
    31    18    13   ar
    32    11     6    1
    33    30    25   ar
    34     3    12    1
@<TRIPOS>MOLECULE
*****
 30 34 0 0 0
SMALL
GASTEIGER

@<TRIPOS>ATOM
      1 O         137.0343  141.6674  162.8347 O.2     1  UNL1       -0.2751
      2 C         138.0322  142.5206  163.5600 C.2     1  UNL1        0.2220
      3 N         137.7167  143.7075  164.4212 N.am    1  UNL1       -0.3040
      4 C         139.0104  144.2572  164.9449 C.3     1  UNL1        0.0941
      5 C         140.1255  143.4099  164.4073 C.3     1  UNL1        0.0501
      6 C         139.5209  142.3367  163.5514 C.3     1  UNL1        0.0768
      7 C         141.0173  142.2780  163.6373 C.3     1  UNL1        0.0264
      8 C         141.7693  141.2086  162.9019 C.3     1  UNL1        0.0728
      9 N         141.0250  140.1979  162.0807 N.3     1  UNL1       -0.2715
     10 C         139.5286  140.2565  161.9948 C.3     1  UNL1        0.0728
     11 C         138.7766  141.3259  162.7302 C.3     1  UNL1        0.0264
     12 H         136.8183  144.0633  164.6096 H       1  UNL1        0.1494
     13 C         141.5883  143.6022  164.6782 C.ar    1  UNL1       -0.0204
     14 C         142.2798  142.7508  165.7013 C.ar    1  UNL1       -0.0042
     15 C         143.7426  142.9431  165.9721 C.ar    1  UNL1       -0.0003
     16 C         144.5138  143.9868  165.2198 C.ar    1  UNL1       -0.0000
     17 C         143.8221  144.8383  164.1966 C.ar    1  UNL1       -0.0003
     18 C         142.3595  144.6459  163.9258 C.ar    1  UNL1       -0.0042
     19 C         141.7771  139.1284  161.3453 C.3     1  UNL1        0.0691
     20 C         141.0200  139.7446  160.2063 C.3     1  UNL1        0.0510
     21 C         141.1873  139.2064  158.8162 C.3     1  UNL1        0.1438
     22 O         142.1115  138.0520  158.5651 O.3     1  UNL1       -0.3537
     23 C         142.8685  137.4358  159.7041 C.3     1  UNL1        0.1438
     24 C         142.7013  137.9740  161.0941 C.3     1  UNL1        0.0510
     25 C         142.2729  138.8836  162.7396 C.ar    1  UNL1       -0.0091
     26 C         141.3944  138.1877  163.7367 C.ar    1  UNL1       -0.0030
     27 C         141.8903  137.9430  165.1310 C.ar    1  UNL1       -0.0003
     28 C         143.2646  138.3941  165.5283 C.ar    1  UNL1       -0.0000
     29 C         144.1429  139.0899  164.5314 C.ar    1  UNL1       -0.0003
     30 C         143.6471  139.3347  163.1369 C.ar    1  UNL1       -0.0030
@<TRIPOS>BOND
     1     1     2    2
     2     2     3   am
     3     3     4    1
     4     4     5    1
     5     5    13    1
     6    13    14   ar
     7    14    15   ar
     8    15    16   ar
     9    16    17   ar
    10    17    18   ar
    11     5     6    1
    12     6     7    1
    13     7     8    1
    14     8     9    1
    15     9    19    1
    16    19    25    1
    17    25    26   ar
    18    26    27   ar
    19    27    28   ar
    20    28    29   ar
    21    29    30   ar
    22    19    20    1
    23    20    21    1
    24    21    22    1
    25    22    23    1
    26    23    24    1
    27     9    10    1
    28    10    11    1
    29     6     2    1
    30    24    19    1
    31    18    13   ar
    32    11     6    1
    33    30    25   ar
    34     3    12    1
