@<TRIPOS>MOLECULE
*****
 32 35 0 0 0
SMALL
GASTEIGER

@<TRIPOS>ATOM
      1 C         140.2058  139.1551  161.7074 C.3     1  UNL1        0.0478
      2 C         139.7501  138.4811  160.4473 C.3     1  UNL1        0.0981
      3 N         140.6754  138.8926  159.3407 N.am    1  UNL1       -0.2789
      4 C         140.5883  138.4529  157.9092 C.2     1  UNL1        0.2252
      5 O         139.4994  137.5160  157.4773 O.2     1  UNL1       -0.2749
      6 C         141.7031  139.8209  159.9170 C.3     1  UNL1        0.0981
      7 C         141.4129  139.9831  161.3796 C.3     1  UNL1        0.0478
      8 C         137.6497  138.6311  167.1103 C.3     1  UNL1        0.0310
      9 C         138.2887  138.7621  165.7596 C.ar    1  UNL1       -0.0219
     10 C         138.2246  140.0671  165.0229 C.ar    1  UNL1       -0.0046
     11 C         138.8636  140.1982  163.6722 C.ar    1  UNL1       -0.0045
     12 C         139.5668  139.0241  163.0581 C.ar    1  UNL1       -0.0205
     13 C         139.6310  137.7191  163.7948 C.ar    1  UNL1       -0.0045
     14 C         138.9919  137.5881  165.1455 C.ar    1  UNL1       -0.0046
     15 C         141.5901  138.9502  156.9097 C.3     1  UNL1        0.0767
     16 C         141.3466  140.2385  156.1810 C.3     1  UNL1        0.0091
     17 C         142.3484  140.7357  155.1814 C.3     1  UNL1        0.0019
     18 C         143.5937  139.9447  154.9106 C.3     1  UNL1        0.0155
     19 C         143.8373  138.6564  155.6392 C.3     1  UNL1        0.0019
     20 C         142.8354  138.1591  156.6388 C.3     1  UNL1        0.0091
     21 C         144.5955  140.4419  153.9110 C.3     1  UNL1        0.0651
     22 N         145.3203  139.4695  153.0282 N.3     1  UNL1       -0.3211
     23 H         145.9263  138.8793  153.5982 H       1  UNL1        0.1189
     24 H         145.8845  139.9814  152.3499 H       1  UNL1        0.1189
     25 C         142.1928  140.8255  162.3451 C.ar    1  UNL1       -0.0204
     26 C         143.2476  140.1969  163.2068 C.ar    1  UNL1       -0.0035
     27 C         144.0276  141.0393  164.1722 C.ar    1  UNL1        0.0100
     28 C         143.7528  142.5103  164.2760 C.ar    1  UNL1        0.0684
     29 C         142.6981  143.1388  163.4143 C.ar    1  UNL1        0.0100
     30 C         141.9182  142.2964  162.4489 C.ar    1  UNL1       -0.0035
     31 C         144.5328  143.3527  165.2414 C.1     1  UNL1        0.1004
     32 N         145.3126  144.1950  166.2068 N.1     1  UNL1       -0.1908
@<TRIPOS>BOND
     1     8     9    1
     2     9    10   ar
     3    10    11   ar
     4    11    12   ar
     5     1    12    1
     6     1     2    1
     7     2     3    1
     8     3     4   am
     9     4     5    2
    10    15     4    1
    11    15    16    1
    12    16    17    1
    13    17    18    1
    14    18    21    1
    15    21    22    1
    16    18    19    1
    17    19    20    1
    18     3     6    1
    19     6     7    1
    20     7    25    1
    21    25    26   ar
    22    26    27   ar
    23    27    28   ar
    24    28    31    1
    25    31    32    3
    26    28    29   ar
    27    29    30   ar
    28    12    13   ar
    29    13    14   ar
    30    14     9   ar
    31     7     1    1
    32    30    25   ar
    33    20    15    1
    34    22    23    1
    35    22    24    1
@<TRIPOS>MOLECULE
*****
 32 35 0 0 0
SMALL
GASTEIGER

@<TRIPOS>ATOM
      1 C         142.7557  139.7551  160.0880 C.3     1  UNL1        0.0478
      2 C         143.3811  139.5956  158.7340 C.3     1  UNL1        0.0981
      3 N         142.9162  138.2903  158.1595 N.am    1  UNL1       -0.2789
      4 C         143.2972  137.7306  156.8210 C.2     1  UNL1        0.2252
      5 O         144.2251  138.4958  155.9246 O.2     1  UNL1       -0.2749
      6 C         142.0034  137.6431  159.1584 C.3     1  UNL1        0.0981
      7 C         141.9042  138.5484  160.3503 C.3     1  UNL1        0.0478
      8 C         143.5247  144.4037  163.8027 C.3     1  UNL1        0.0310
      9 C         143.3325  143.2416  162.8740 C.ar    1  UNL1       -0.0219
     10 C         142.0309  143.0684  162.1489 C.ar    1  UNL1       -0.0046
     11 C         141.8387  141.9062  161.2202 C.ar    1  UNL1       -0.0045
     12 C         142.9479  140.9173  161.0167 C.ar    1  UNL1       -0.0205
     13 C         144.2495  141.0905  161.7419 C.ar    1  UNL1       -0.0045
     14 C         144.4418  142.2527  162.6705 C.ar    1  UNL1       -0.0046
     15 C         142.7503  136.4057  156.3789 C.3     1  UNL1        0.0767
     16 C         143.3604  135.1342  156.8901 C.3     1  UNL1        0.0091
     17 C         142.8135  133.8093  156.4480 C.3     1  UNL1        0.0019
     18 C         141.6565  133.7558  155.4948 C.3     1  UNL1        0.0155
     19 C         141.0464  135.0271  154.9837 C.3     1  UNL1        0.0019
     20 C         141.5933  136.3522  155.4257 C.3     1  UNL1        0.0091
     21 C         141.1095  132.4308  155.0527 C.3     1  UNL1        0.0651
     22 N         141.8615  131.1694  155.3583 N.3     1  UNL1       -0.3211
     23 H         142.7449  131.1681  154.8484 H       1  UNL1        0.1189
     24 H         141.3039  130.3639  155.0744 H       1  UNL1        0.1189
     25 C         141.0955  138.2919  161.5874 C.ar    1  UNL1       -0.0204
     26 C         141.7840  137.9591  162.8779 C.ar    1  UNL1       -0.0035
     27 C         140.9753  137.7026  164.1149 C.ar    1  UNL1        0.0100
     28 C         139.4782  137.7789  164.0615 C.ar    1  UNL1        0.0684
     29 C         138.7898  138.1118  162.7710 C.ar    1  UNL1        0.0100
     30 C         139.5985  138.3682  161.5340 C.ar    1  UNL1       -0.0035
     31 C         138.6695  137.5225  165.2985 C.1     1  UNL1        0.1004
     32 N         137.8608  137.2660  166.5355 N.1     1  UNL1       -0.1908
@<TRIPOS>BOND
     1     8     9    1
     2     9    10   ar
     3    10    11   ar
     4    11    12   ar
     5     1    12    1
     6     1     2    1
     7     2     3    1
     8     3     4   am
     9     4     5    2
    10    15     4    1
    11    15    16    1
    12    16    17    1
    13    17    18    1
    14    18    21    1
    15    21    22    1
    16    18    19    1
    17    19    20    1
    18     3     6    1
    19     6     7    1
    20     7    25    1
    21    25    26   ar
    22    26    27   ar
    23    27    28   ar
    24    28    31    1
    25    31    32    3
    26    28    29   ar
    27    29    30   ar
    28    12    13   ar
    29    13    14   ar
    30    14     9   ar
    31     7     1    1
    32    30    25   ar
    33    20    15    1
    34    22    23    1
    35    22    24    1
@<TRIPOS>MOLECULE
*****
 32 35 0 0 0
SMALL
GASTEIGER

@<TRIPOS>ATOM
      1 C         141.2888  142.5288  161.2247 C.3     1  UNL1        0.0478
      2 C         141.4420  142.9790  159.8021 C.3     1  UNL1        0.0981
      3 N         140.3267  142.3744  159.0018 N.am    1  UNL1       -0.2789
      4 C         140.0947  142.5610  157.5317 C.2     1  UNL1        0.2252
      5 O         141.0266  143.4189  156.7282 O.2     1  UNL1       -0.2749
      6 C         139.4841  141.5505  159.9299 C.3     1  UNL1        0.0981
      7 C         140.0787  141.6459  161.3036 C.3     1  UNL1        0.0478
      8 C         144.8848  144.0008  165.7966 C.3     1  UNL1        0.0310
      9 C         143.9858  143.6328  164.6536 C.ar    1  UNL1       -0.0219
     10 C         143.8724  142.2015  164.2194 C.ar    1  UNL1       -0.0046
     11 C         142.9734  141.8335  163.0764 C.ar    1  UNL1       -0.0045
     12 C         142.1878  142.8968  162.3677 C.ar    1  UNL1       -0.0205
     13 C         142.3012  144.3280  162.8019 C.ar    1  UNL1       -0.0045
     14 C         143.2002  144.6960  163.9449 C.ar    1  UNL1       -0.0046
     15 C         138.9307  141.8897  156.8650 C.3     1  UNL1        0.0767
     16 C         137.5932  142.5678  156.8299 C.3     1  UNL1        0.0091
     17 C         136.4292  141.8965  156.1632 C.3     1  UNL1        0.0019
     18 C         136.6028  140.5471  155.5316 C.3     1  UNL1        0.0155
     19 C         137.9401  139.8690  155.5667 C.3     1  UNL1        0.0019
     20 C         139.1042  140.5403  156.2334 C.3     1  UNL1        0.0091
     21 C         135.4387  139.8757  154.8649 C.3     1  UNL1        0.0651
     22 N         134.4497  139.1009  155.6844 N.3     1  UNL1       -0.3211
     23 H         134.9087  138.2848  156.0890 H       1  UNL1        0.1189
     24 H         133.6788  138.7974  155.0894 H       1  UNL1        0.1189
     25 C         139.5552  140.9760  162.5394 C.ar    1  UNL1       -0.0204
     26 C         139.8866  139.5384  162.8110 C.ar    1  UNL1       -0.0035
     27 C         139.3630  138.8685  164.0467 C.ar    1  UNL1        0.0100
     28 C         138.5080  139.6361  165.0110 C.ar    1  UNL1        0.0684
     29 C         138.1766  141.0736  164.7394 C.ar    1  UNL1        0.0100
     30 C         138.7002  141.7435  163.5037 C.ar    1  UNL1       -0.0035
     31 C         137.9845  138.9663  166.2468 C.1     1  UNL1        0.1004
     32 N         137.4609  138.2964  167.4824 N.1     1  UNL1       -0.1908
@<TRIPOS>BOND
     1     8     9    1
     2     9    10   ar
     3    10    11   ar
     4    11    12   ar
     5     1    12    1
     6     1     2    1
     7     2     3    1
     8     3     4   am
     9     4     5    2
    10    15     4    1
    11    15    16    1
    12    16    17    1
    13    17    18    1
    14    18    21    1
    15    21    22    1
    16    18    19    1
    17    19    20    1
    18     3     6    1
    19     6     7    1
    20     7    25    1
    21    25    26   ar
    22    26    27   ar
    23    27    28   ar
    24    28    31    1
    25    31    32    3
    26    28    29   ar
    27    29    30   ar
    28    12    13   ar
    29    13    14   ar
    30    14     9   ar
    31     7     1    1
    32    30    25   ar
    33    20    15    1
    34    22    23    1
    35    22    24    1
@<TRIPOS>MOLECULE
*****
 32 35 0 0 0
SMALL
GASTEIGER

@<TRIPOS>ATOM
      1 C         143.0888  140.1390  160.3403 C.3     1  UNL1        0.0478
      2 C         143.7347  140.1273  158.9865 C.3     1  UNL1        0.0981
      3 N         143.2302  138.9264  158.2426 N.am    1  UNL1       -0.2789
      4 C         143.6157  138.5263  156.8493 C.2     1  UNL1        0.2252
      5 O         144.5911  139.3600  156.0723 O.2     1  UNL1       -0.2749
      6 C         142.2725  138.1960  159.1365 C.3     1  UNL1        0.0981
      7 C         142.1851  138.9454  160.4330 C.3     1  UNL1        0.0478
      8 C         143.9660  144.2402  164.6310 C.3     1  UNL1        0.0310
      9 C         143.7467  143.2149  163.5584 C.ar    1  UNL1       -0.0219
     10 C         144.8046  142.1908  163.2722 C.ar    1  UNL1       -0.0046
     11 C         144.5853  141.1655  162.1995 C.ar    1  UNL1       -0.0045
     12 C         143.3081  141.1643  161.4130 C.ar    1  UNL1       -0.0205
     13 C         142.2502  142.1884  161.6992 C.ar    1  UNL1       -0.0045
     14 C         142.4695  143.2137  162.7718 C.ar    1  UNL1       -0.0046
     15 C         143.0259  137.2926  156.2329 C.3     1  UNL1        0.0767
     16 C         143.9153  136.1475  155.8486 C.3     1  UNL1        0.0091
     17 C         143.3254  134.9137  155.2322 C.3     1  UNL1        0.0019
     18 C         141.8461  134.8251  155.0003 C.3     1  UNL1        0.0155
     19 C         140.9567  135.9701  155.3846 C.3     1  UNL1        0.0019
     20 C         141.5466  137.2039  156.0010 C.3     1  UNL1        0.0091
     21 C         141.2562  133.5913  154.3839 C.3     1  UNL1        0.0651
     22 N         141.0142  132.3742  155.2266 N.3     1  UNL1       -0.3211
     23 H         141.9074  131.9966  155.5430 H       1  UNL1        0.1189
     24 H         140.5239  131.6704  154.6746 H       1  UNL1        0.1189
     25 C         141.3420  138.5675  161.6147 C.ar    1  UNL1       -0.0204
     26 C         139.8686  138.8488  161.6055 C.ar    1  UNL1       -0.0035
     27 C         139.0255  138.4710  162.7872 C.ar    1  UNL1        0.0100
     28 C         139.6558  137.8117  163.9781 C.ar    1  UNL1        0.0684
     29 C         141.1291  137.5304  163.9872 C.ar    1  UNL1        0.0100
     30 C         141.9722  137.9083  162.8055 C.ar    1  UNL1       -0.0035
     31 C         138.8127  137.4338  165.1598 C.1     1  UNL1        0.1004
     32 N         137.9697  137.0559  166.3414 N.1     1  UNL1       -0.1908
@<TRIPOS>BOND
     1     8     9    1
     2     9    10   ar
     3    10    11   ar
     4    11    12   ar
     5     1    12    1
     6     1     2    1
     7     2     3    1
     8     3     4   am
     9     4     5    2
    10    15     4    1
    11    15    16    1
    12    16    17    1
    13    17    18    1
    14    18    21    1
    15    21    22    1
    16    18    19    1
    17    19    20    1
    18     3     6    1
    19     6     7    1
    20     7    25    1
    21    25    26   ar
    22    26    27   ar
    23    27    28   ar
    24    28    31    1
    25    31    32    3
    26    28    29   ar
    27    29    30   ar
    28    12    13   ar
    29    13    14   ar
    30    14     9   ar
    31     7     1    1
    32    30    25   ar
    33    20    15    1
    34    22    23    1
    35    22    24    1
@<TRIPOS>MOLECULE
*****
 32 35 0 0 0
SMALL
GASTEIGER

@<TRIPOS>ATOM
      1 C         142.7444  140.3146  160.1401 C.3     1  UNL1        0.0478
      2 C         143.3205  139.7394  161.3999 C.3     1  UNL1        0.0981
      3 N         142.2034  139.5741  162.3872 N.am    1  UNL1       -0.2789
      4 C         142.3306  139.0311  163.7797 C.2     1  UNL1        0.2252
      5 O         143.6700  138.5949  164.2952 O.2     1  UNL1       -0.2749
      6 C         140.9369  140.0471  161.7376 C.3     1  UNL1        0.0981
      7 C         141.2712  140.5048  160.3488 C.3     1  UNL1        0.0478
      8 C         145.7967  141.6247  155.1434 C.3     1  UNL1        0.0310
      9 C         145.0336  141.2972  156.3926 C.ar    1  UNL1       -0.0219
     10 C         145.1247  142.2015  157.5858 C.ar    1  UNL1       -0.0046
     11 C         144.3616  141.8739  158.8350 C.ar    1  UNL1       -0.0045
     12 C         143.5075  140.6422  158.8909 C.ar    1  UNL1       -0.0205
     13 C         143.4165  139.7379  157.6976 C.ar    1  UNL1       -0.0045
     14 C         144.1795  140.0654  156.4484 C.ar    1  UNL1       -0.0046
     15 C         141.1183  138.9243  164.6566 C.3     1  UNL1        0.0767
     16 C         140.1381  137.8081  164.4485 C.3     1  UNL1        0.0091
     17 C         138.9259  137.7012  165.3254 C.3     1  UNL1        0.0019
     18 C         138.6938  138.7106  166.4104 C.3     1  UNL1        0.0155
     19 C         139.6739  139.8268  166.6186 C.3     1  UNL1        0.0019
     20 C         140.8863  139.9337  165.7416 C.3     1  UNL1        0.0091
     21 C         137.4815  138.6038  167.2874 C.3     1  UNL1        0.0651
     22 N         136.7854  137.2848  167.4473 N.3     1  UNL1       -0.3211
     23 H         136.3761  137.0061  166.5556 H       1  UNL1        0.1189
     24 H         136.0485  137.3719  168.1472 H       1  UNL1        0.1189
     25 C         140.3024  141.0559  159.3449 C.ar    1  UNL1       -0.0204
     26 C         139.6000  140.1317  158.3948 C.ar    1  UNL1       -0.0035
     27 C         138.6312  140.6828  157.3909 C.ar    1  UNL1        0.0100
     28 C         138.3648  142.1579  157.3371 C.ar    1  UNL1        0.0684
     29 C         139.0673  143.0820  158.2871 C.ar    1  UNL1        0.0100
     30 C         140.0361  142.5310  159.2910 C.ar    1  UNL1       -0.0035
     31 C         137.3960  142.7090  156.3332 C.1     1  UNL1        0.1004
     32 N         136.4273  143.2601  155.3294 N.1     1  UNL1       -0.1908
@<TRIPOS>BOND
     1     8     9    1
     2     9    10   ar
     3    10    11   ar
     4    11    12   ar
     5     1    12    1
     6     1     2    1
     7     2     3    1
     8     3     4   am
     9     4     5    2
    10    15     4    1
    11    15    16    1
    12    16    17    1
    13    17    18    1
    14    18    21    1
    15    21    22    1
    16    18    19    1
    17    19    20    1
    18     3     6    1
    19     6     7    1
    20     7    25    1
    21    25    26   ar
    22    26    27   ar
    23    27    28   ar
    24    28    31    1
    25    31    32    3
    26    28    29   ar
    27    29    30   ar
    28    12    13   ar
    29    13    14   ar
    30    14     9   ar
    31     7     1    1
    32    30    25   ar
    33    20    15    1
    34    22    23    1
    35    22    24    1
@<TRIPOS>MOLECULE
*****
 32 35 0 0 0
SMALL
GASTEIGER

@<TRIPOS>ATOM
      1 C         139.8387  141.6948  161.2461 C.3     1  UNL1        0.0478
      2 C         139.3613  141.8998  159.8389 C.3     1  UNL1        0.0981
      3 N         139.9589  140.8211  158.9848 N.am    1  UNL1       -0.2789
      4 C         139.7470  140.6451  157.5104 C.2     1  UNL1        0.2252
      5 O         138.8679  141.6010  156.7596 O.2     1  UNL1       -0.2749
      6 C         140.8057  139.9495  159.8642 C.3     1  UNL1        0.0981
      7 C         140.7314  140.4894  161.2616 C.3     1  UNL1        0.0478
      8 C         138.4258  145.0985  165.9808 C.3     1  UNL1        0.0310
      9 C         138.7791  144.2476  164.7971 C.ar    1  UNL1       -0.0219
     10 C         137.8217  143.1982  164.3154 C.ar    1  UNL1       -0.0046
     11 C         138.1749  142.3473  163.1317 C.ar    1  UNL1       -0.0045
     12 C         139.4855  142.5457  162.4297 C.ar    1  UNL1       -0.0205
     13 C         140.4429  143.5951  162.9115 C.ar    1  UNL1       -0.0045
     14 C         140.0897  144.4461  164.0952 C.ar    1  UNL1       -0.0046
     15 C         140.4140  139.5132  156.7867 C.3     1  UNL1        0.0767
     16 C         139.8044  138.1429  156.8133 C.3     1  UNL1        0.0091
     17 C         140.4715  137.0110  156.0896 C.3     1  UNL1        0.0019
     18 C         141.7482  137.2494  155.3393 C.3     1  UNL1        0.0155
     19 C         142.3579  138.6196  155.3125 C.3     1  UNL1        0.0019
     20 C         141.6908  139.7516  156.0363 C.3     1  UNL1        0.0091
     21 C         142.4154  136.1175  154.6155 C.3     1  UNL1        0.0651
     22 N         143.8353  135.7554  154.9362 N.3     1  UNL1       -0.3211
     23 H         144.4515  136.5204  154.6617 H       1  UNL1        0.1189
     24 H         144.0941  134.9106  154.4266 H       1  UNL1        0.1189
     25 C         141.4276  139.9233  162.4637 C.ar    1  UNL1       -0.0204
     26 C         142.6957  140.5516  162.9611 C.ar    1  UNL1       -0.0035
     27 C         143.3919  139.9855  164.1631 C.ar    1  UNL1        0.0100
     28 C         142.8200  138.7912  164.8678 C.ar    1  UNL1        0.0684
     29 C         141.5520  138.1630  164.3704 C.ar    1  UNL1        0.0100
     30 C         140.8558  138.7291  163.1684 C.ar    1  UNL1       -0.0035
     31 C         143.5162  138.2252  166.0698 C.1     1  UNL1        0.1004
     32 N         144.2123  137.6591  167.2718 N.1     1  UNL1       -0.1908
@<TRIPOS>BOND
     1     8     9    1
     2     9    10   ar
     3    10    11   ar
     4    11    12   ar
     5     1    12    1
     6     1     2    1
     7     2     3    1
     8     3     4   am
     9     4     5    2
    10    15     4    1
    11    15    16    1
    12    16    17    1
    13    17    18    1
    14    18    21    1
    15    21    22    1
    16    18    19    1
    17    19    20    1
    18     3     6    1
    19     6     7    1
    20     7    25    1
    21    25    26   ar
    22    26    27   ar
    23    27    28   ar
    24    28    31    1
    25    31    32    3
    26    28    29   ar
    27    29    30   ar
    28    12    13   ar
    29    13    14   ar
    30    14     9   ar
    31     7     1    1
    32    30    25   ar
    33    20    15    1
    34    22    23    1
    35    22    24    1
@<TRIPOS>MOLECULE
*****
 32 35 0 0 0
SMALL
GASTEIGER

@<TRIPOS>ATOM
      1 C         139.4480  140.5123  160.8459 C.3     1  UNL1        0.0478
      2 C         138.9628  140.4774  159.4270 C.3     1  UNL1        0.0981
      3 N         139.6625  139.3513  158.7253 N.am    1  UNL1       -0.2789
      4 C         139.4771  138.9558  157.2903 C.2     1  UNL1        0.2252
      5 O         138.5188  139.7147  156.4210 O.2     1  UNL1       -0.2749
      6 C         140.5801  138.6902  159.7106 C.3     1  UNL1        0.0981
      7 C         140.4475  139.4077  161.0212 C.3     1  UNL1        0.0478
      8 C         137.6977  144.3893  165.0774 C.3     1  UNL1        0.0310
      9 C         138.1353  143.4200  164.0195 C.ar    1  UNL1       -0.0219
     10 C         137.7243  141.9800  164.1054 C.ar    1  UNL1       -0.0046
     11 C         138.1618  141.0108  163.0476 C.ar    1  UNL1       -0.0045
     12 C         139.0104  141.4815  161.9038 C.ar    1  UNL1       -0.0205
     13 C         139.4214  142.9215  161.8179 C.ar    1  UNL1       -0.0045
     14 C         138.9838  143.8908  162.8757 C.ar    1  UNL1       -0.0046
     15 C         140.2501  137.8015  156.7247 C.3     1  UNL1        0.0767
     16 C         139.6231  136.9136  155.6909 C.3     1  UNL1        0.0091
     17 C         140.3961  135.7593  155.1253 C.3     1  UNL1        0.0019
     18 C         141.7960  135.4928  155.5934 C.3     1  UNL1        0.0155
     19 C         142.4230  136.3805  156.6271 C.3     1  UNL1        0.0019
     20 C         141.6500  137.5350  157.1928 C.3     1  UNL1        0.0091
     21 C         142.5690  134.3383  155.0277 C.3     1  UNL1        0.0651
     22 N         142.3191  132.9485  155.5338 N.3     1  UNL1       -0.3211
     23 H         142.6076  132.8852  156.5100 H       1  UNL1        0.1189
     24 H         142.8548  132.2826  154.9770 H       1  UNL1        0.1189
     25 C         141.1850  139.0784  162.2852 C.ar    1  UNL1       -0.0204
     26 C         142.3312  139.9376  162.7304 C.ar    1  UNL1       -0.0035
     27 C         143.0687  139.6083  163.9943 C.ar    1  UNL1        0.0100
     28 C         142.6601  138.4198  164.8132 C.ar    1  UNL1        0.0684
     29 C         141.5140  137.5606  164.3680 C.ar    1  UNL1        0.0100
     30 C         140.7765  137.8899  163.1040 C.ar    1  UNL1       -0.0035
     31 C         143.3976  138.0905  166.0772 C.1     1  UNL1        0.1004
     32 N         144.1350  137.7612  167.3411 N.1     1  UNL1       -0.1908
@<TRIPOS>BOND
     1     8     9    1
     2     9    10   ar
     3    10    11   ar
     4    11    12   ar
     5     1    12    1
     6     1     2    1
     7     2     3    1
     8     3     4   am
     9     4     5    2
    10    15     4    1
    11    15    16    1
    12    16    17    1
    13    17    18    1
    14    18    21    1
    15    21    22    1
    16    18    19    1
    17    19    20    1
    18     3     6    1
    19     6     7    1
    20     7    25    1
    21    25    26   ar
    22    26    27   ar
    23    27    28   ar
    24    28    31    1
    25    31    32    3
    26    28    29   ar
    27    29    30   ar
    28    12    13   ar
    29    13    14   ar
    30    14     9   ar
    31     7     1    1
    32    30    25   ar
    33    20    15    1
    34    22    23    1
    35    22    24    1
@<TRIPOS>MOLECULE
*****
 32 35 0 0 0
SMALL
GASTEIGER

@<TRIPOS>ATOM
      1 C         142.8495  140.4487  161.4007 C.3     1  UNL1        0.0478
      2 C         143.4221  139.9961  160.0902 C.3     1  UNL1        0.0981
      3 N         142.9015  140.9065  159.0178 N.am    1  UNL1       -0.2789
      4 C         143.2195  140.8174  157.5546 C.2     1  UNL1        0.2252
      5 O         144.1357  139.7421  157.0503 O.2     1  UNL1       -0.2749
      6 C         142.0072  141.9218  159.6654 C.3     1  UNL1        0.0981
      7 C         141.9751  141.6388  161.1382 C.3     1  UNL1        0.0478
      8 C         143.8766  137.9390  166.7530 C.3     1  UNL1        0.0310
      9 C         143.6199  138.5664  165.4149 C.ar    1  UNL1       -0.0219
     10 C         142.2783  138.4160  164.7611 C.ar    1  UNL1       -0.0046
     11 C         142.0215  139.0435  163.4230 C.ar    1  UNL1       -0.0045
     12 C         143.1063  139.8212  162.7388 C.ar    1  UNL1       -0.0205
     13 C         144.4479  139.9716  163.3926 C.ar    1  UNL1       -0.0045
     14 C         144.7047  139.3442  164.7307 C.ar    1  UNL1       -0.0046
     15 C         142.6212  141.8035  156.5956 C.3     1  UNL1        0.0767
     16 C         143.3355  143.0885  156.2982 C.3     1  UNL1        0.0091
     17 C         142.7372  144.0746  155.3393 C.3     1  UNL1        0.0019
     18 C         141.4245  143.7757  154.6778 C.3     1  UNL1        0.0155
     19 C         140.7102  142.4908  154.9751 C.3     1  UNL1        0.0019
     20 C         141.3085  141.5045  155.9341 C.3     1  UNL1        0.0091
     21 C         140.8262  144.7618  153.7188 C.3     1  UNL1        0.0651
     22 N         139.3394  144.8134  153.5264 N.3     1  UNL1       -0.3211
     23 H         139.0217  143.9441  153.0977 H       1  UNL1        0.1189
     24 H         139.1021  145.5983  152.9197 H       1  UNL1        0.1189
     25 C         141.2039  142.4105  162.1676 C.ar    1  UNL1       -0.0204
     26 C         141.8522  143.5557  162.8877 C.ar    1  UNL1       -0.0035
     27 C         141.0810  144.3274  163.9171 C.ar    1  UNL1        0.0100
     28 C         139.6616  143.9540  164.2265 C.ar    1  UNL1        0.0684
     29 C         139.0134  142.8088  163.5065 C.ar    1  UNL1        0.0100
     30 C         139.7846  142.0371  162.4771 C.ar    1  UNL1       -0.0035
     31 C         138.8904  144.7257  165.2560 C.1     1  UNL1        0.1004
     32 N         138.1192  145.4973  166.2853 N.1     1  UNL1       -0.1908
@<TRIPOS>BOND
     1     8     9    1
     2     9    10   ar
     3    10    11   ar
     4    11    12   ar
     5     1    12    1
     6     1     2    1
     7     2     3    1
     8     3     4   am
     9     4     5    2
    10    15     4    1
    11    15    16    1
    12    16    17    1
    13    17    18    1
    14    18    21    1
    15    21    22    1
    16    18    19    1
    17    19    20    1
    18     3     6    1
    19     6     7    1
    20     7    25    1
    21    25    26   ar
    22    26    27   ar
    23    27    28   ar
    24    28    31    1
    25    31    32    3
    26    28    29   ar
    27    29    30   ar
    28    12    13   ar
    29    13    14   ar
    30    14     9   ar
    31     7     1    1
    32    30    25   ar
    33    20    15    1
    34    22    23    1
    35    22    24    1
@<TRIPOS>MOLECULE
*****
 32 35 0 0 0
SMALL
GASTEIGER

@<TRIPOS>ATOM
      1 C         141.0705  138.8320  160.6888 C.3     1  UNL1        0.0478
      2 C         141.1711  137.8776  161.8416 C.3     1  UNL1        0.0981
      3 N         141.0001  138.6617  163.1089 N.am    1  UNL1       -0.2789
      4 C         141.0301  138.1045  164.5012 C.2     1  UNL1        0.2252
      5 O         141.2471  136.6360  164.7169 O.2     1  UNL1       -0.2749
      6 C         140.7939  140.1007  162.7393 C.3     1  UNL1        0.0981
      7 C         140.8374  140.2060  161.2436 C.3     1  UNL1        0.0478
      8 C         141.5216  137.4044  154.8786 C.3     1  UNL1        0.0310
      9 C         141.4088  137.7613  156.3311 C.ar    1  UNL1       -0.0219
     10 C         140.0653  138.0580  156.9284 C.ar    1  UNL1       -0.0046
     11 C         139.9525  138.4149  158.3810 C.ar    1  UNL1       -0.0045
     12 C         141.1833  138.4751  159.2362 C.ar    1  UNL1       -0.0205
     13 C         142.5268  138.1783  158.6389 C.ar    1  UNL1       -0.0045
     14 C         142.6396  137.8215  157.1864 C.ar    1  UNL1       -0.0046
     15 C         140.8432  139.0159  165.6778 C.3     1  UNL1        0.0767
     16 C         139.4660  139.2813  166.2096 C.3     1  UNL1        0.0091
     17 C         139.2790  140.1926  167.3863 C.3     1  UNL1        0.0019
     18 C         140.4694  140.8386  168.0311 C.3     1  UNL1        0.0155
     19 C         141.8466  140.5732  167.4994 C.3     1  UNL1        0.0019
     20 C         142.0336  139.6618  166.3227 C.3     1  UNL1        0.0091
     21 C         140.2825  141.7500  169.2078 C.3     1  UNL1        0.0651
     22 N         139.3226  141.3787  170.2990 N.3     1  UNL1       -0.3211
     23 H         138.3716  141.3791  169.9300 H       1  UNL1        0.1189
     24 H         139.3928  142.0558  171.0586 H       1  UNL1        0.1189
     25 C         140.6760  141.4643  160.4432 C.ar    1  UNL1       -0.0204
     26 C         139.3315  141.8346  159.8907 C.ar    1  UNL1       -0.0035
     27 C         139.1701  143.0929  159.0904 C.ar    1  UNL1        0.0100
     28 C         140.3533  143.9810  158.8425 C.ar    1  UNL1        0.0684
     29 C         141.6978  143.6108  159.3950 C.ar    1  UNL1        0.0100
     30 C         141.8591  142.3524  160.1954 C.ar    1  UNL1       -0.0035
     31 C         140.1920  145.2394  158.0422 C.1     1  UNL1        0.1004
     32 N         140.0307  146.4976  157.2419 N.1     1  UNL1       -0.1908
@<TRIPOS>BOND
     1     8     9    1
     2     9    10   ar
     3    10    11   ar
     4    11    12   ar
     5     1    12    1
     6     1     2    1
     7     2     3    1
     8     3     4   am
     9     4     5    2
    10    15     4    1
    11    15    16    1
    12    16    17    1
    13    17    18    1
    14    18    21    1
    15    21    22    1
    16    18    19    1
    17    19    20    1
    18     3     6    1
    19     6     7    1
    20     7    25    1
    21    25    26   ar
    22    26    27   ar
    23    27    28   ar
    24    28    31    1
    25    31    32    3
    26    28    29   ar
    27    29    30   ar
    28    12    13   ar
    29    13    14   ar
    30    14     9   ar
    31     7     1    1
    32    30    25   ar
    33    20    15    1
    34    22    23    1
    35    22    24    1
