@<TRIPOS>MOLECULE
*****
 16 17 0 0 0
SMALL
GASTEIGER

@<TRIPOS>ATOM
      1 C         145.7400  141.7220  163.9365 C.3     1  UNL1        0.0310
      2 C         144.5334  142.6075  163.8371 C.ar    1  UNL1       -0.0217
      3 C         144.5461  143.7920  162.9170 C.ar    1  UNL1       -0.0011
      4 C         143.3394  144.6775  162.8176 C.ar    1  UNL1        0.0372
      5 C         142.1201  144.3785  163.6383 C.ar    1  UNL1        0.1451
      6 O         140.7919  145.0665  163.7501 O.2     1  UNL1       -0.4509
      7 C         139.9583  144.3072  164.7394 C.ar    1  UNL1        0.1768
      8 C         140.7712  143.1499  165.2390 C.ar    1  UNL1        0.0185
      9 C         140.3263  142.1280  166.2428 C.3     1  UNL1        0.0344
     10 C         142.1073  143.1940  164.5585 C.ar    1  UNL1        0.0333
     11 C         143.3140  142.3085  164.6579 C.ar    1  UNL1       -0.0014
     12 C         138.5575  144.6459  165.1558 C.2     1  UNL1        0.2221
     13 O         138.3214  145.5243  166.3485 O.2     1  UNL1       -0.2870
     14 C         137.3931  144.1060  164.3796 C.3     1  UNL1        0.1773
     15 C         137.5963  143.5849  162.9879 C.1     1  UNL1        0.0816
     16 N         137.7996  143.0638  161.5960 N.1     1  UNL1       -0.1954
@<TRIPOS>BOND
     1     1     2    1
     2     2     3   ar
     3     3     4   ar
     4     4     5   ar
     5     5     6   ar
     6     6     7   ar
     7     7    12    1
     8    12    13    2
     9    12    14    1
    10    14    15    1
    11    15    16    3
    12     7     8   ar
    13     8     9    1
    14     8    10   ar
    15    10    11   ar
    16    11     2   ar
    17    10     5   ar
@<TRIPOS>MOLECULE
*****
 16 17 0 0 0
SMALL
GASTEIGER

@<TRIPOS>ATOM
      1 C         137.8410  143.7836  163.2922 C.3     1  UNL1        0.0310
      2 C         138.2875  142.6406  164.1549 C.ar    1  UNL1       -0.0217
      3 C         137.7689  141.2574  163.8947 C.ar    1  UNL1       -0.0011
      4 C         138.2154  140.1144  164.7574 C.ar    1  UNL1        0.0372
      5 C         139.1805  140.3546  165.8802 C.ar    1  UNL1        0.1451
      6 O         139.7953  139.4314  166.8901 O.2     1  UNL1       -0.4509
      7 C         140.6939  140.2441  167.7744 C.ar    1  UNL1        0.1768
      8 C         140.6345  141.6695  167.3111 C.ar    1  UNL1        0.0185
      9 C         141.3796  142.8240  167.9128 C.3     1  UNL1        0.0344
     10 C         139.6991  141.7378  166.1404 C.ar    1  UNL1        0.0333
     11 C         139.2526  142.8808  165.2777 C.ar    1  UNL1       -0.0014
     12 C         141.5089  139.7229  168.9208 C.2     1  UNL1        0.2221
     13 O         142.9207  139.2703  168.6927 O.2     1  UNL1       -0.2870
     14 C         140.9122  139.6543  170.2952 C.3     1  UNL1        0.1773
     15 C         140.8034  140.8968  171.1285 C.1     1  UNL1        0.0816
     16 N         140.6947  142.1393  171.9618 N.1     1  UNL1       -0.1954
@<TRIPOS>BOND
     1     1     2    1
     2     2     3   ar
     3     3     4   ar
     4     4     5   ar
     5     5     6   ar
     6     6     7   ar
     7     7    12    1
     8    12    13    2
     9    12    14    1
    10    14    15    1
    11    15    16    3
    12     7     8   ar
    13     8     9    1
    14     8    10   ar
    15    10    11   ar
    16    11     2   ar
    17    10     5   ar
@<TRIPOS>MOLECULE
*****
 16 17 0 0 0
SMALL
GASTEIGER

@<TRIPOS>ATOM
      1 C         138.8343  137.6142  163.3420 C.3     1  UNL1        0.0310
      2 C         139.2143  138.6990  164.3057 C.ar    1  UNL1       -0.0217
      3 C         138.3402  139.9086  164.4561 C.ar    1  UNL1       -0.0011
      4 C         138.7202  140.9935  165.4198 C.ar    1  UNL1        0.0372
      5 C         139.9743  140.8687  166.2331 C.ar    1  UNL1        0.1451
      6 O         140.6015  141.7697  167.2553 O.2     1  UNL1       -0.4509
      7 C         141.8633  141.1169  167.7367 C.ar    1  UNL1        0.1768
      8 C         142.0160  139.8125  167.0120 C.ar    1  UNL1        0.0185
      9 C         143.1389  138.8333  167.1860 C.3     1  UNL1        0.0344
     10 C         140.8485  139.6591  166.0827 C.ar    1  UNL1        0.0333
     11 C         140.4685  138.5743  165.1190 C.ar    1  UNL1       -0.0014
     12 C         142.8068  141.6712  168.7627 C.2     1  UNL1        0.2221
     13 O         143.8101  142.7157  168.3722 O.2     1  UNL1       -0.2870
     14 C         142.7470  141.1811  170.1791 C.3     1  UNL1        0.1773
     15 C         141.6514  141.6508  171.0895 C.1     1  UNL1        0.0816
     16 N         140.5557  142.1205  172.0001 N.1     1  UNL1       -0.1954
@<TRIPOS>BOND
     1     1     2    1
     2     2     3   ar
     3     3     4   ar
     4     4     5   ar
     5     5     6   ar
     6     6     7   ar
     7     7    12    1
     8    12    13    2
     9    12    14    1
    10    14    15    1
    11    15    16    3
    12     7     8   ar
    13     8     9    1
    14     8    10   ar
    15    10    11   ar
    16    11     2   ar
    17    10     5   ar
@<TRIPOS>MOLECULE
*****
 16 17 0 0 0
SMALL
GASTEIGER

@<TRIPOS>ATOM
      1 C         138.7054  138.1299  163.3758 C.3     1  UNL1        0.0310
      2 C         139.8781  138.4189  164.2654 C.ar    1  UNL1       -0.0217
      3 C         141.2623  138.0414  163.8280 C.ar    1  UNL1       -0.0011
      4 C         142.4349  138.3304  164.7175 C.ar    1  UNL1        0.0372
      5 C         142.2234  138.9970  166.0445 C.ar    1  UNL1        0.1451
      6 O         143.1789  139.4051  167.1264 O.2     1  UNL1       -0.4509
      7 C         142.3851  140.0348  168.2325 C.ar    1  UNL1        0.1768
      8 C         140.9391  140.0160  167.8342 C.ar    1  UNL1        0.0185
      9 C         139.7941  140.5455  168.6457 C.3     1  UNL1        0.0344
     10 C         140.8392  139.3745  166.4819 C.ar    1  UNL1        0.0333
     11 C         139.6665  139.0855  165.5923 C.ar    1  UNL1       -0.0014
     12 C         142.9401  140.5866  169.5123 C.2     1  UNL1        0.2221
     13 O         143.1803  139.6759  170.6798 O.2     1  UNL1       -0.2870
     14 C         143.2548  142.0488  169.6245 C.3     1  UNL1        0.1773
     15 C         142.1657  143.0275  169.9499 C.1     1  UNL1        0.0816
     16 N         141.0765  144.0063  170.2753 N.1     1  UNL1       -0.1954
@<TRIPOS>BOND
     1     1     2    1
     2     2     3   ar
     3     3     4   ar
     4     4     5   ar
     5     5     6   ar
     6     6     7   ar
     7     7    12    1
     8    12    13    2
     9    12    14    1
    10    14    15    1
    11    15    16    3
    12     7     8   ar
    13     8     9    1
    14     8    10   ar
    15    10    11   ar
    16    11     2   ar
    17    10     5   ar
@<TRIPOS>MOLECULE
*****
 16 17 0 0 0
SMALL
GASTEIGER

@<TRIPOS>ATOM
      1 C         140.7475  141.2045  171.0997 C.3     1  UNL1        0.0310
      2 C         140.6469  141.2103  169.6031 C.ar    1  UNL1       -0.0217
      3 C         141.5022  142.1427  168.7975 C.ar    1  UNL1       -0.0011
      4 C         141.4016  142.1484  167.3009 C.ar    1  UNL1        0.0372
      5 C         140.4457  141.2219  166.6098 C.ar    1  UNL1        0.1451
      6 O         140.1298  141.0044  165.1597 O.2     1  UNL1       -0.4509
      7 C         139.0792  139.9376  165.0691 C.ar    1  UNL1        0.1768
      8 C         138.7458  139.4957  166.4632 C.ar    1  UNL1        0.0185
      9 C         137.7437  138.4447  166.8391 C.3     1  UNL1        0.0344
     10 C         139.5903  140.2895  167.4154 C.ar    1  UNL1        0.0333
     11 C         139.6909  140.2838  168.9121 C.ar    1  UNL1       -0.0014
     12 C         138.4692  139.4059  163.8060 C.2     1  UNL1        0.2221
     13 O         137.5469  140.2693  162.9974 O.2     1  UNL1       -0.2870
     14 C         138.7816  138.0110  163.3515 C.3     1  UNL1        0.1773
     15 C         140.1190  137.7008  162.7475 C.1     1  UNL1        0.0816
     16 N         141.4566  137.3907  162.1434 N.1     1  UNL1       -0.1954
@<TRIPOS>BOND
     1     1     2    1
     2     2     3   ar
     3     3     4   ar
     4     4     5   ar
     5     5     6   ar
     6     6     7   ar
     7     7    12    1
     8    12    13    2
     9    12    14    1
    10    14    15    1
    11    15    16    3
    12     7     8   ar
    13     8     9    1
    14     8    10   ar
    15    10    11   ar
    16    11     2   ar
    17    10     5   ar
@<TRIPOS>MOLECULE
*****
 16 17 0 0 0
SMALL
GASTEIGER

@<TRIPOS>ATOM
      1 C         140.7253  140.6688  171.0980 C.3     1  UNL1        0.0310
      2 C         140.5185  141.0066  169.6512 C.ar    1  UNL1       -0.0217
      3 C         141.1025  142.2666  169.0843 C.ar    1  UNL1       -0.0011
      4 C         140.8957  142.6044  167.6376 C.ar    1  UNL1        0.0372
      5 C         140.1049  141.6822  166.7577 C.ar    1  UNL1        0.1451
      6 O         139.7376  141.7507  165.3050 O.2     1  UNL1       -0.4509
      7 C         138.9265  140.5330  164.9740 C.ar    1  UNL1        0.1768
      8 C         138.7926  139.7120  166.2222 C.ar    1  UNL1        0.0185
      9 C         138.0592  138.4094  166.3463 C.3     1  UNL1        0.0344
     10 C         139.5209  140.4223  167.3246 C.ar    1  UNL1        0.0333
     11 C         139.7277  140.0845  168.7713 C.ar    1  UNL1       -0.0014
     12 C         138.3505  140.1957  163.6307 C.2     1  UNL1        0.2221
     13 O         138.8010  138.9594  162.9106 O.2     1  UNL1       -0.2870
     14 C         137.3241  141.0946  163.0075 C.3     1  UNL1        0.1773
     15 C         137.6990  142.4864  162.5926 C.1     1  UNL1        0.0816
     16 N         138.0739  143.8783  162.1776 N.1     1  UNL1       -0.1954
@<TRIPOS>BOND
     1     1     2    1
     2     2     3   ar
     3     3     4   ar
     4     4     5   ar
     5     5     6   ar
     6     6     7   ar
     7     7    12    1
     8    12    13    2
     9    12    14    1
    10    14    15    1
    11    15    16    3
    12     7     8   ar
    13     8     9    1
    14     8    10   ar
    15    10    11   ar
    16    11     2   ar
    17    10     5   ar
@<TRIPOS>MOLECULE
*****
 16 17 0 0 0
SMALL
GASTEIGER

@<TRIPOS>ATOM
      1 C         140.6200  143.9832  169.9810 C.3     1  UNL1        0.0310
      2 C         140.2853  142.7440  169.2048 C.ar    1  UNL1       -0.0217
      3 C         139.7071  141.5519  169.9080 C.ar    1  UNL1       -0.0011
      4 C         139.3724  140.3127  169.1319 C.ar    1  UNL1        0.0372
      5 C         139.6159  140.2656  167.6526 C.ar    1  UNL1        0.1451
      6 O         139.3871  139.1910  166.6314 O.2     1  UNL1       -0.4509
      7 C         139.8239  139.7190  165.2970 C.ar    1  UNL1        0.1768
      8 C         140.3226  141.1199  165.4935 C.ar    1  UNL1        0.0185
      9 C         140.8561  142.0243  164.4223 C.3     1  UNL1        0.0344
     10 C         140.1940  141.4577  166.9494 C.ar    1  UNL1        0.0333
     11 C         140.5287  142.6969  167.7255 C.ar    1  UNL1       -0.0014
     12 C         139.7712  138.9763  163.9948 C.2     1  UNL1        0.2221
     13 O         140.9535  138.1720  163.5417 O.2     1  UNL1       -0.2870
     14 C         138.5362  139.0380  163.1457 C.3     1  UNL1        0.1773
     15 C         137.8174  140.3415  162.9611 C.1     1  UNL1        0.0816
     16 N         137.0985  141.6450  162.7765 N.1     1  UNL1       -0.1954
@<TRIPOS>BOND
     1     1     2    1
     2     2     3   ar
     3     3     4   ar
     4     4     5   ar
     5     5     6   ar
     6     6     7   ar
     7     7    12    1
     8    12    13    2
     9    12    14    1
    10    14    15    1
    11    15    16    3
    12     7     8   ar
    13     8     9    1
    14     8    10   ar
    15    10    11   ar
    16    11     2   ar
    17    10     5   ar
@<TRIPOS>MOLECULE
*****
 16 17 0 0 0
SMALL
GASTEIGER

@<TRIPOS>ATOM
      1 C         139.0538  144.7352  163.7187 C.3     1  UNL1        0.0310
      2 C         139.4932  143.5357  164.5049 C.ar    1  UNL1       -0.0217
      3 C         139.6900  142.2181  163.8156 C.ar    1  UNL1       -0.0011
      4 C         140.1295  141.0187  164.6018 C.ar    1  UNL1        0.0372
      5 C         140.3721  141.1367  166.0773 C.ar    1  UNL1        0.1451
      6 O         140.8074  140.1358  167.1062 O.2     1  UNL1       -0.4509
      7 C         140.8796  140.8348  168.4314 C.ar    1  UNL1        0.1768
      8 C         140.4889  142.2678  168.2216 C.ar    1  UNL1        0.0185
      9 C         140.4234  143.3280  169.2806 C.3     1  UNL1        0.0344
     10 C         140.1752  142.4543  166.7666 C.ar    1  UNL1        0.0333
     11 C         139.7358  143.6538  165.9804 C.ar    1  UNL1       -0.0014
     12 C         141.2734  140.2105  169.7373 C.2     1  UNL1        0.2221
     13 O         140.2457  139.5043  170.5710 O.2     1  UNL1       -0.2870
     14 C         142.6948  140.2923  170.2093 C.3     1  UNL1        0.1773
     15 C         143.4940  141.5388  169.9698 C.1     1  UNL1        0.0816
     16 N         144.2932  142.7854  169.7304 N.1     1  UNL1       -0.1954
@<TRIPOS>BOND
     1     1     2    1
     2     2     3   ar
     3     3     4   ar
     4     4     5   ar
     5     5     6   ar
     6     6     7   ar
     7     7    12    1
     8    12    13    2
     9    12    14    1
    10    14    15    1
    11    15    16    3
    12     7     8   ar
    13     8     9    1
    14     8    10   ar
    15    10    11   ar
    16    11     2   ar
    17    10     5   ar
@<TRIPOS>MOLECULE
*****
 16 17 0 0 0
SMALL
GASTEIGER

@<TRIPOS>ATOM
      1 C         137.3440  137.7327  167.0383 C.3     1  UNL1        0.0310
      2 C         138.4277  138.4165  166.2585 C.ar    1  UNL1       -0.0217
      3 C         138.9894  137.7683  165.0280 C.ar    1  UNL1       -0.0011
      4 C         140.0730  138.4521  164.2482 C.ar    1  UNL1        0.0372
      5 C         140.5950  139.7841  164.6989 C.ar    1  UNL1        0.1451
      6 O         141.6502  140.6907  164.1380 O.2     1  UNL1       -0.4509
      7 C         141.7407  141.8993  165.0220 C.ar    1  UNL1        0.1768
      8 C         140.7414  141.7396  166.1291 C.ar    1  UNL1        0.0185
      9 C         140.4936  142.7157  167.2408 C.3     1  UNL1        0.0344
     10 C         140.0333  140.4323  165.9295 C.ar    1  UNL1        0.0333
     11 C         138.9497  139.7485  166.7093 C.ar    1  UNL1       -0.0014
     12 C         142.6677  143.0631  164.8320 C.2     1  UNL1        0.2221
     13 O         142.1353  144.3713  164.3268 O.2     1  UNL1       -0.2870
     14 C         144.1271  142.9188  165.1472 C.3     1  UNL1        0.1773
     15 C         145.0477  142.2702  164.1564 C.1     1  UNL1        0.0816
     16 N         145.9684  141.6214  163.1656 N.1     1  UNL1       -0.1954
@<TRIPOS>BOND
     1     1     2    1
     2     2     3   ar
     3     3     4   ar
     4     4     5   ar
     5     5     6   ar
     6     6     7   ar
     7     7    12    1
     8    12    13    2
     9    12    14    1
    10    14    15    1
    11    15    16    3
    12     7     8   ar
    13     8     9    1
    14     8    10   ar
    15    10    11   ar
    16    11     2   ar
    17    10     5   ar
