@<TRIPOS>MOLECULE
*****
 9 9 0 0 0
SMALL
GASTEIGER

@<TRIPOS>ATOM
      1 N         146.2822  133.3185  173.5768 N.pl3   1  UNL1       -0.3569
      2 C         145.9347  134.6157  172.9086 C.ar    1  UNL1        0.0446
      3 C         144.7878  134.6788  171.9439 C.ar    1  UNL1        0.0348
      4 C         144.4404  135.9760  171.2756 C.ar    1  UNL1        0.1001
      5 N         145.2397  137.2101  171.5720 N.ar    1  UNL1       -0.2422
      6 C         146.3866  137.1470  172.5367 C.ar    1  UNL1        0.1001
      7 C         146.7341  135.8498  173.2050 C.ar    1  UNL1        0.0348
      8 H         145.7575  132.5085  173.3823 H       1  UNL1        0.1424
      9 H         147.0349  133.2771  174.2100 H       1  UNL1        0.1424
@<TRIPOS>BOND
     1     1     2    1
     2     2     3   ar
     3     3     4   ar
     4     4     5   ar
     5     5     6   ar
     6     6     7   ar
     7     7     2   ar
     8     1     8    1
     9     1     9    1
@<TRIPOS>MOLECULE
*****
 9 9 0 0 0
SMALL
GASTEIGER

@<TRIPOS>ATOM
      1 N         139.8998  139.5805  171.1471 N.pl3   1  UNL1       -0.3569
      2 C         140.4958  140.9200  170.8301 C.ar    1  UNL1        0.0446
      3 C         139.6249  142.0236  170.3073 C.ar    1  UNL1        0.0348
      4 C         140.2208  143.3631  169.9903 C.ar    1  UNL1        0.1001
      5 N         141.6878  143.5990  170.1961 N.ar    1  UNL1       -0.2422
      6 C         142.5587  142.4954  170.7190 C.ar    1  UNL1        0.1001
      7 C         141.9627  141.1559  171.0359 C.ar    1  UNL1        0.0348
      8 H         138.9370  139.4256  171.0120 H       1  UNL1        0.1424
      9 H         140.4714  138.8561  171.4902 H       1  UNL1        0.1424
@<TRIPOS>BOND
     1     1     2    1
     2     2     3   ar
     3     3     4   ar
     4     4     5   ar
     5     5     6   ar
     6     6     7   ar
     7     7     2   ar
     8     1     8    1
     9     1     9    1
@<TRIPOS>MOLECULE
*****
 9 9 0 0 0
SMALL
GASTEIGER

@<TRIPOS>ATOM
      1 N         143.3966  143.9731  171.2452 N.pl3   1  UNL1       -0.3569
      2 C         142.6937  143.0601  170.2849 C.ar    1  UNL1        0.0446
      3 C         141.2759  143.3411  169.8840 C.ar    1  UNL1        0.0348
      4 C         140.5730  142.4281  168.9236 C.ar    1  UNL1        0.1001
      5 N         141.2879  141.2341  168.3641 N.ar    1  UNL1       -0.2422
      6 C         142.7057  140.9531  168.7650 C.ar    1  UNL1        0.1001
      7 C         143.4086  141.8661  169.7253 C.ar    1  UNL1        0.0348
      8 H         142.9274  144.7568  171.6125 H       1  UNL1        0.1424
      9 H         144.3272  143.7887  171.5083 H       1  UNL1        0.1424
@<TRIPOS>BOND
     1     1     2    1
     2     2     3   ar
     3     3     4   ar
     4     4     5   ar
     5     5     6   ar
     6     6     7   ar
     7     7     2   ar
     8     1     8    1
     9     1     9    1
@<TRIPOS>MOLECULE
*****
 9 9 0 0 0
SMALL
GASTEIGER

@<TRIPOS>ATOM
      1 N         143.8559  139.5715  171.3824 N.pl3   1  UNL1       -0.3569
      2 C         142.9593  140.2030  170.3590 C.ar    1  UNL1        0.0446
      3 C         143.3086  141.5417  169.7797 C.ar    1  UNL1        0.0348
      4 C         142.4121  142.1732  168.7563 C.ar    1  UNL1        0.1001
      5 N         141.1662  141.4658  168.3121 N.ar    1  UNL1       -0.2422
      6 C         140.8168  140.1271  168.8914 C.ar    1  UNL1        0.1001
      7 C         141.7134  139.4956  169.9148 C.ar    1  UNL1        0.0348
      8 H         144.6736  140.0358  171.6740 H       1  UNL1        0.1424
      9 H         143.6266  138.6928  171.7626 H       1  UNL1        0.1424
@<TRIPOS>BOND
     1     1     2    1
     2     2     3   ar
     3     3     4   ar
     4     4     5   ar
     5     5     6   ar
     6     6     7   ar
     7     7     2   ar
     8     1     8    1
     9     1     9    1
@<TRIPOS>MOLECULE
*****
 9 9 0 0 0
SMALL
GASTEIGER

@<TRIPOS>ATOM
      1 N         139.8532  139.4705  171.2233 N.pl3   1  UNL1       -0.3569
      2 C         140.4621  140.7766  170.8069 C.ar    1  UNL1        0.0446
      3 C         141.9267  141.0224  171.0178 C.ar    1  UNL1        0.0348
      4 C         142.5356  142.3285  170.6015 C.ar    1  UNL1        0.1001
      5 N         141.6799  143.3888  169.9742 N.ar    1  UNL1       -0.2422
      6 C         140.2153  143.1430  169.7633 C.ar    1  UNL1        0.1001
      7 C         139.6064  141.8369  170.1796 C.ar    1  UNL1        0.0348
      8 H         140.4148  138.7746  171.6350 H       1  UNL1        0.1424
      9 H         138.8919  139.3092  171.0849 H       1  UNL1        0.1424
@<TRIPOS>BOND
     1     1     2    1
     2     2     3   ar
     3     3     4   ar
     4     4     5   ar
     5     5     6   ar
     6     6     7   ar
     7     7     2   ar
     8     1     8    1
     9     1     9    1
@<TRIPOS>MOLECULE
*****
 9 9 0 0 0
SMALL
GASTEIGER

@<TRIPOS>ATOM
      1 N         144.0494  142.7082  170.1431 N.pl3   1  UNL1       -0.3569
      2 C         142.5966  142.3754  170.3120 C.ar    1  UNL1        0.0446
      3 C         141.5491  143.3899  169.9605 C.ar    1  UNL1        0.0348
      4 C         140.0962  143.0571  170.1294 C.ar    1  UNL1        0.1001
      5 N         139.6909  141.7099  170.6496 N.ar    1  UNL1       -0.2422
      6 C         140.7384  140.6955  171.0010 C.ar    1  UNL1        0.1001
      7 C         142.1913  141.0282  170.8322 C.ar    1  UNL1        0.0348
      8 H         144.3155  143.5924  169.8017 H       1  UNL1        0.1424
      9 H         144.7370  142.0424  170.3738 H       1  UNL1        0.1424
@<TRIPOS>BOND
     1     1     2    1
     2     2     3   ar
     3     3     4   ar
     4     4     5   ar
     5     5     6   ar
     6     6     7   ar
     7     7     2   ar
     8     1     8    1
     9     1     9    1
@<TRIPOS>MOLECULE
*****
 9 9 0 0 0
SMALL
GASTEIGER

@<TRIPOS>ATOM
      1 N         139.7419  139.5709  171.1771 N.pl3   1  UNL1       -0.3569
      2 C         139.9804  140.6105  170.1224 C.ar    1  UNL1        0.0446
      3 C         139.9958  140.2198  168.6743 C.ar    1  UNL1        0.0348
      4 C         140.2342  141.2594  167.6195 C.ar    1  UNL1        0.1001
      5 N         140.4572  142.6896  168.0129 N.ar    1  UNL1       -0.2422
      6 C         140.4418  143.0802  169.4610 C.ar    1  UNL1        0.1001
      7 C         140.2034  142.0407  170.5158 C.ar    1  UNL1        0.0348
      8 H         139.5956  138.6322  170.9189 H       1  UNL1        0.1424
      9 H         139.7318  139.8273  172.1276 H       1  UNL1        0.1424
@<TRIPOS>BOND
     1     1     2    1
     2     2     3   ar
     3     3     4   ar
     4     4     5   ar
     5     5     6   ar
     6     6     7   ar
     7     7     2   ar
     8     1     8    1
     9     1     9    1
@<TRIPOS>MOLECULE
*****
 9 9 0 0 0
SMALL
GASTEIGER

@<TRIPOS>ATOM
      1 N         140.2197  139.9294  171.4580 N.pl3   1  UNL1       -0.3569
      2 C         140.6707  139.8759  170.0284 C.ar    1  UNL1        0.0446
      3 C         142.0901  139.5166  169.7027 C.ar    1  UNL1        0.0348
      4 C         142.5411  139.4632  168.2731 C.ar    1  UNL1        0.1001
      5 N         141.5727  139.7690  167.1692 N.ar    1  UNL1       -0.2422
      6 C         140.1533  140.1283  167.4949 C.ar    1  UNL1        0.1001
      7 C         139.7023  140.1818  168.9245 C.ar    1  UNL1        0.0348
      8 H         140.8553  139.7286  172.1825 H       1  UNL1        0.1424
      9 H         139.2881  140.1652  171.6718 H       1  UNL1        0.1424
@<TRIPOS>BOND
     1     1     2    1
     2     2     3   ar
     3     3     4   ar
     4     4     5   ar
     5     5     6   ar
     6     6     7   ar
     7     7     2   ar
     8     1     8    1
     9     1     9    1
@<TRIPOS>MOLECULE
*****
 9 9 0 0 0
SMALL
GASTEIGER

@<TRIPOS>ATOM
      1 N         142.9654  139.2438  168.3242 N.pl3   1  UNL1       -0.3569
      2 C         142.4793  140.2230  169.3513 C.ar    1  UNL1        0.0446
      3 C         143.1625  141.5494  169.5055 C.ar    1  UNL1        0.0348
      4 C         142.6765  142.5286  170.5326 C.ar    1  UNL1        0.1001
      5 N         141.5072  142.1813  171.4056 N.ar    1  UNL1       -0.2422
      6 C         140.8240  140.8549  171.2515 C.ar    1  UNL1        0.1001
      7 C         141.3100  139.8757  170.2243 C.ar    1  UNL1        0.0348
      8 H         143.7328  139.4717  167.7512 H       1  UNL1        0.1424
      9 H         142.5169  138.3732  168.2231 H       1  UNL1        0.1424
@<TRIPOS>BOND
     1     1     2    1
     2     2     3   ar
     3     3     4   ar
     4     4     5   ar
     5     5     6   ar
     6     6     7   ar
     7     7     2   ar
     8     1     8    1
     9     1     9    1
