@<TRIPOS>MOLECULE
*****
 37 42 0 0 0
SMALL
GASTEIGER

@<TRIPOS>ATOM
      1 C         142.8596  142.3270  164.0793 C.3     1  UNL1        0.0955
      2 C         142.7232  143.7956  164.3530 C.3     1  UNL1        0.0287
      3 C         142.3863  144.7386  163.2362 C.3     1  UNL1        0.0194
      4 C         142.1857  144.2131  161.8457 C.3     1  UNL1        0.0725
      5 C         142.3220  142.7446  161.5720 C.3     1  UNL1        0.0194
      6 C         142.6590  141.8015  162.6887 C.3     1  UNL1        0.0287
      7 C         142.3690  143.6576  162.4253 C.3     1  UNL1        0.1562
      8 O         142.6737  142.8050  163.4351 O.3     1  UNL1       -0.3571
      9 N         141.8487  145.1561  160.7289 N.3     1  UNL1       -0.2603
     10 H         142.1714  144.7180  159.8662 H       1  UNL1        0.1266
     11 C         140.4248  145.5680  160.4991 C.3     1  UNL1        0.2812
     12 O         139.3315  144.5417  160.5381 O.3     1  UNL1       -0.4561
     13 C         138.8000  144.0617  161.8561 C.ar    1  UNL1        0.1699
     14 C         138.8896  144.9428  163.0667 C.ar    1  UNL1        0.0689
     15 C         138.3580  144.4628  164.3846 C.ar    1  UNL1        0.1433
     16 F         138.4476  145.3439  165.5952 F       1  UNL1       -0.2041
     17 C         137.7368  143.1017  164.4919 C.ar    1  UNL1        0.0322
     18 C         137.6472  142.2206  163.2813 C.ar    1  UNL1        0.0351
     19 C         138.1788  142.7006  161.9634 C.ar    1  UNL1        0.1740
     20 F         138.0893  141.8195  160.7527 F       1  UNL1       -0.2010
     21 C         143.1966  141.3840  165.1961 C.3     1  UNL1        0.0604
     22 O         144.2016  142.9148  169.9845 O.2     1  UNL1       -0.2670
     23 C         142.9001  142.1784  169.8678 C.ar    1  UNL1        0.2611
     24 C         142.0493  141.9616  171.0839 C.ar    1  UNL1        0.0623
     25 C         140.7477  141.2252  170.9672 C.ar    1  UNL1        0.0254
     26 C         140.2970  140.7055  169.6343 C.ar    1  UNL1        0.0972
     27 N         139.0615  139.9456  169.2264 N.ar    1  UNL1       -0.2400
     28 C         138.7431  139.4862  167.8344 C.ar    1  UNL1        0.1282
     29 C         139.6950  139.7776  166.7124 C.ar    1  UNL1        0.1588
     30 F         139.3766  139.3182  165.3204 F       1  UNL1       -0.2027
     31 C         140.9653  140.5283  166.9823 C.ar    1  UNL1        0.0500
     32 C         141.1478  140.9222  168.4181 C.ar    1  UNL1        0.0806
     33 N         142.4493  141.6587  168.5349 N.ar    1  UNL1       -0.2915
     34 C         143.0712  141.7199  167.1712 C.3     1  UNL1        0.1402
     35 C         142.1540  141.0212  166.2117 C.3     1  UNL1        0.1335
     36 O         141.4547  140.3985  165.0399 O.3     1  UNL1       -0.3806
     37 H         141.9879  140.5265  164.2397 H       1  UNL1        0.2108
@<TRIPOS>BOND
     1    22    23    2
     2    23    24   ar
     3    24    25   ar
     4    25    26   ar
     5    26    27   ar
     6    27    28   ar
     7    28    29   ar
     8    29    30    1
     9    29    31   ar
    10    31    32   ar
    11    32    33   ar
    12    33    34    1
    13    34    35    1
    14    35    36    1
    15    35    21    1
    16    21     1    1
    17     1     2    1
    18     2     3    1
    19     3     4    1
    20     4     9    1
    21     9    11    1
    22    11    12    1
    23    12    13    1
    24    13    14   ar
    25    14    15   ar
    26    15    16    1
    27    15    17   ar
    28    17    18   ar
    29    18    19   ar
    30    19    20    1
    31     4     5    1
    32     5     6    1
    33     4     7    1
    34     7     8    1
    35    33    23   ar
    36     6     1    1
    37    32    26   ar
    38     8     1    1
    39    35    31    1
    40    19    13   ar
    41    36    37    1
    42     9    10    1
@<TRIPOS>MOLECULE
*****
 37 42 0 0 0
SMALL
GASTEIGER

@<TRIPOS>ATOM
      1 C         142.6671  142.3929  164.1710 C.3     1  UNL1        0.0955
      2 C         142.5609  143.8536  164.4954 C.3     1  UNL1        0.0287
      3 C         142.1947  144.8355  163.4222 C.3     1  UNL1        0.0194
      4 C         141.9347  144.3568  162.0246 C.3     1  UNL1        0.0725
      5 C         142.0408  142.8961  161.7003 C.3     1  UNL1        0.0194
      6 C         142.4070  141.9141  162.7735 C.3     1  UNL1        0.0287
      7 C         142.1323  143.7811  162.5792 C.3     1  UNL1        0.1562
      8 O         142.4635  142.8932  163.5496 O.3     1  UNL1       -0.3571
      9 N         141.5685  145.3387  160.9514 N.3     1  UNL1       -0.2603
     10 H         141.9799  144.9940  160.0841 H       1  UNL1        0.1266
     11 C         140.1257  145.6287  160.6610 C.3     1  UNL1        0.2812
     12 O         139.1230  145.6366  161.7765 O.3     1  UNL1       -0.4561
     13 C         138.6745  144.3439  162.3911 C.ar    1  UNL1        0.1699
     14 C         138.2782  143.1938  161.5135 C.ar    1  UNL1        0.0689
     15 C         137.8298  141.9012  162.1282 C.ar    1  UNL1        0.1433
     16 F         137.4335  140.7511  161.2505 F       1  UNL1       -0.2041
     17 C         137.7776  141.7586  163.6204 C.ar    1  UNL1        0.0322
     18 C         138.1739  142.9087  164.4981 C.ar    1  UNL1        0.0351
     19 C         138.6223  144.2013  163.8834 C.ar    1  UNL1        0.1740
     20 F         139.0186  145.3515  164.7610 F       1  UNL1       -0.2010
     21 C         143.0333  141.4110  165.2442 C.3     1  UNL1        0.0604
     22 O         144.2299  142.8943  170.0035 O.2     1  UNL1       -0.2670
     23 C         142.9226  142.1623  169.9311 C.ar    1  UNL1        0.2611
     24 C         142.1196  141.9364  171.1777 C.ar    1  UNL1        0.0623
     25 C         140.8123  141.2044  171.1053 C.ar    1  UNL1        0.0254
     26 C         140.3081  140.6983  169.7864 C.ar    1  UNL1        0.0972
     27 N         139.0554  139.9454  169.4203 N.ar    1  UNL1       -0.2400
     28 C         138.6813  139.4999  168.0377 C.ar    1  UNL1        0.1282
     29 C         139.5893  139.7993  166.8819 C.ar    1  UNL1        0.1588
     30 F         139.2152  139.3539  165.4993 F       1  UNL1       -0.2027
     31 C         140.8714  140.5442  167.1087 C.ar    1  UNL1        0.0500
     32 C         141.1112  140.9243  168.5398 C.ar    1  UNL1        0.0806
     33 N         142.4184  141.6563  168.6122 N.ar    1  UNL1       -0.2915
     34 C         142.9865  141.7286  167.2258 C.3     1  UNL1        0.1402
     35 C         142.0304  141.0414  166.2966 C.3     1  UNL1        0.1335
     36 O         141.2839  140.4314  165.1474 O.3     1  UNL1       -0.3806
     37 H         141.7856  140.5656  164.3282 H       1  UNL1        0.2108
@<TRIPOS>BOND
     1    22    23    2
     2    23    24   ar
     3    24    25   ar
     4    25    26   ar
     5    26    27   ar
     6    27    28   ar
     7    28    29   ar
     8    29    30    1
     9    29    31   ar
    10    31    32   ar
    11    32    33   ar
    12    33    34    1
    13    34    35    1
    14    35    36    1
    15    35    21    1
    16    21     1    1
    17     1     2    1
    18     2     3    1
    19     3     4    1
    20     4     9    1
    21     9    11    1
    22    11    12    1
    23    12    13    1
    24    13    14   ar
    25    14    15   ar
    26    15    16    1
    27    15    17   ar
    28    17    18   ar
    29    18    19   ar
    30    19    20    1
    31     4     5    1
    32     5     6    1
    33     4     7    1
    34     7     8    1
    35    33    23   ar
    36     6     1    1
    37    32    26   ar
    38     8     1    1
    39    35    31    1
    40    19    13   ar
    41    36    37    1
    42     9    10    1
@<TRIPOS>MOLECULE
*****
 37 42 0 0 0
SMALL
GASTEIGER

@<TRIPOS>ATOM
      1 C         142.8476  142.5944  164.2673 C.3     1  UNL1        0.0955
      2 C         142.6171  142.0314  162.8961 C.3     1  UNL1        0.0287
      3 C         142.2065  142.9368  161.7728 C.3     1  UNL1        0.0194
      4 C         142.0262  144.4051  162.0207 C.3     1  UNL1        0.0725
      5 C         142.2566  144.9681  163.3919 C.3     1  UNL1        0.0194
      6 C         142.6673  144.0627  164.5152 C.3     1  UNL1        0.0287
      7 C         142.2522  143.9485  162.6677 C.3     1  UNL1        0.1562
      8 O         142.6235  143.1299  163.6833 O.3     1  UNL1       -0.3571
      9 N         141.6155  145.3105  160.8975 N.3     1  UNL1       -0.2603
     10 H         142.0369  144.9353  160.0478 H       1  UNL1        0.1266
     11 C         140.1609  145.5254  160.6011 C.3     1  UNL1        0.2812
     12 O         139.1676  145.5849  161.7235 O.3     1  UNL1       -0.4561
     13 C         138.6957  144.3191  162.3755 C.ar    1  UNL1        0.1699
     14 C         138.2670  143.1555  161.5315 C.ar    1  UNL1        0.0689
     15 C         137.7951  141.8898  162.1836 C.ar    1  UNL1        0.1433
     16 F         137.3664  140.7262  161.3396 F       1  UNL1       -0.2041
     17 C         137.7519  141.7876  163.6794 C.ar    1  UNL1        0.0322
     18 C         138.1806  142.9512  164.5234 C.ar    1  UNL1        0.0351
     19 C         138.6525  144.2170  163.8714 C.ar    1  UNL1        0.1740
     20 F         139.0812  145.3807  164.7152 F       1  UNL1       -0.2010
     21 C         143.2583  141.6890  165.3905 C.3     1  UNL1        0.0604
     22 O         139.2313  138.6947  164.3414 O.2     1  UNL1       -0.2670
     23 C         139.2499  139.1716  165.7635 C.ar    1  UNL1        0.2611
     24 C         138.1582  138.7609  166.7066 C.ar    1  UNL1        0.0623
     25 C         138.1768  139.2377  168.1287 C.ar    1  UNL1        0.0254
     26 C         139.2871  140.1253  168.6076 C.ar    1  UNL1        0.0972
     27 N         139.5585  140.7440  169.9545 N.ar    1  UNL1       -0.2400
     28 C         140.7274  141.6227  170.2881 C.ar    1  UNL1        0.1282
     29 C         141.7450  141.9488  169.2354 C.ar    1  UNL1        0.1588
     30 F         142.9140  142.8275  169.5690 F       1  UNL1       -0.2027
     31 C         141.5937  141.3962  167.8491 C.ar    1  UNL1        0.0500
     32 C         140.3788  140.5360  167.6645 C.ar    1  UNL1        0.0806
     33 N         140.3602  140.0591  166.2425 N.ar    1  UNL1       -0.2915
     34 C         141.5636  140.6247  165.5482 C.3     1  UNL1        0.1402
     35 C         142.3259  141.4510  166.5412 C.3     1  UNL1        0.1335
     36 O         143.2831  142.3271  167.2936 O.3     1  UNL1       -0.3806
     37 H         143.9997  142.6057  166.7021 H       1  UNL1        0.2108
@<TRIPOS>BOND
     1    22    23    2
     2    23    24   ar
     3    24    25   ar
     4    25    26   ar
     5    26    27   ar
     6    27    28   ar
     7    28    29   ar
     8    29    30    1
     9    29    31   ar
    10    31    32   ar
    11    32    33   ar
    12    33    34    1
    13    34    35    1
    14    35    36    1
    15    35    21    1
    16    21     1    1
    17     1     2    1
    18     2     3    1
    19     3     4    1
    20     4     9    1
    21     9    11    1
    22    11    12    1
    23    12    13    1
    24    13    14   ar
    25    14    15   ar
    26    15    16    1
    27    15    17   ar
    28    17    18   ar
    29    18    19   ar
    30    19    20    1
    31     4     5    1
    32     5     6    1
    33     4     7    1
    34     7     8    1
    35    33    23   ar
    36     6     1    1
    37    32    26   ar
    38     8     1    1
    39    35    31    1
    40    19    13   ar
    41    36    37    1
    42     9    10    1
@<TRIPOS>MOLECULE
*****
 37 42 0 0 0
SMALL
GASTEIGER

@<TRIPOS>ATOM
      1 C         143.0026  142.5515  164.1755 C.3     1  UNL1        0.0955
      2 C         142.8152  141.9599  162.8098 C.3     1  UNL1        0.0287
      3 C         142.4299  142.8398  161.6577 C.3     1  UNL1        0.0194
      4 C         142.2319  144.3112  161.8712 C.3     1  UNL1        0.0725
      5 C         142.4193  144.9028  163.2368 C.3     1  UNL1        0.0194
      6 C         142.8046  144.0230  164.3890 C.3     1  UNL1        0.0287
      7 C         142.4428  143.8692  162.5332 C.3     1  UNL1        0.1562
      8 O         142.7913  143.0736  163.5749 O.3     1  UNL1       -0.3571
      9 N         141.8466  145.1911  160.7191 N.3     1  UNL1       -0.2603
     10 H         142.1672  144.7234  159.8713 H       1  UNL1        0.1266
     11 C         140.4069  145.5495  160.4980 C.3     1  UNL1        0.2812
     12 O         139.3555  144.4800  160.5223 O.3     1  UNL1       -0.4561
     13 C         138.8116  143.9925  161.8324 C.ar    1  UNL1        0.1699
     14 C         138.8697  144.8753  163.0438 C.ar    1  UNL1        0.0689
     15 C         138.3258  144.3877  164.3538 C.ar    1  UNL1        0.1433
     16 F         138.3839  145.2706  165.5651 F       1  UNL1       -0.2041
     17 C         137.7238  143.0174  164.4527 C.ar    1  UNL1        0.0322
     18 C         137.6656  142.1346  163.2414 C.ar    1  UNL1        0.0351
     19 C         138.2096  142.6222  161.9313 C.ar    1  UNL1        0.1740
     20 F         138.1515  141.7394  160.7199 F       1  UNL1       -0.2010
     21 C         143.3879  141.6716  165.3276 C.3     1  UNL1        0.0604
     22 O         139.4037  138.6891  164.0975 O.2     1  UNL1       -0.2670
     23 C         139.3686  139.1517  165.5239 C.ar    1  UNL1        0.2611
     24 C         138.2422  138.7318  166.4210 C.ar    1  UNL1        0.0623
     25 C         138.2071  139.1944  167.8475 C.ar    1  UNL1        0.0254
     26 C         139.2984  140.0768  168.3769 C.ar    1  UNL1        0.0972
     27 N         139.5187  140.6819  169.7391 N.ar    1  UNL1       -0.2400
     28 C         140.6742  141.5569  170.1254 C.ar    1  UNL1        0.1282
     29 C         141.7308  141.8933  169.1151 C.ar    1  UNL1        0.1588
     30 F         142.8862  142.7683  169.5014 F       1  UNL1       -0.2027
     31 C         141.6318  141.3546  167.7187 C.ar    1  UNL1        0.0500
     32 C         140.4248  140.4966  167.4798 C.ar    1  UNL1        0.0806
     33 N         140.4599  140.0341  166.0533 N.ar    1  UNL1       -0.2915
     34 C         141.6886  140.6062  165.4106 C.3     1  UNL1        0.1402
     35 C         142.4129  141.4224  166.4398 C.3     1  UNL1        0.1335
     36 O         143.3409  142.2907  167.2366 O.3     1  UNL1       -0.3806
     37 H         144.0793  142.5750  166.6754 H       1  UNL1        0.2108
@<TRIPOS>BOND
     1    22    23    2
     2    23    24   ar
     3    24    25   ar
     4    25    26   ar
     5    26    27   ar
     6    27    28   ar
     7    28    29   ar
     8    29    30    1
     9    29    31   ar
    10    31    32   ar
    11    32    33   ar
    12    33    34    1
    13    34    35    1
    14    35    36    1
    15    35    21    1
    16    21     1    1
    17     1     2    1
    18     2     3    1
    19     3     4    1
    20     4     9    1
    21     9    11    1
    22    11    12    1
    23    12    13    1
    24    13    14   ar
    25    14    15   ar
    26    15    16    1
    27    15    17   ar
    28    17    18   ar
    29    18    19   ar
    30    19    20    1
    31     4     5    1
    32     5     6    1
    33     4     7    1
    34     7     8    1
    35    33    23   ar
    36     6     1    1
    37    32    26   ar
    38     8     1    1
    39    35    31    1
    40    19    13   ar
    41    36    37    1
    42     9    10    1
@<TRIPOS>MOLECULE
*****
 37 42 0 0 0
SMALL
GASTEIGER

@<TRIPOS>ATOM
      1 C         138.5910  141.8570  164.3775 C.3     1  UNL1        0.0955
      2 C         138.0995  141.8593  162.9602 C.3     1  UNL1        0.0287
      3 C         138.1260  143.1273  162.1593 C.3     1  UNL1        0.0194
      4 C         138.6439  144.3930  162.7756 C.3     1  UNL1        0.0725
      5 C         139.1353  144.3907  164.1928 C.3     1  UNL1        0.0194
      6 C         139.1089  143.1227  164.9938 C.3     1  UNL1        0.0287
      7 C         138.6490  143.7227  163.2540 C.3     1  UNL1        0.1562
      8 O         138.6251  142.5762  163.9782 O.3     1  UNL1       -0.3571
      9 N         138.6704  145.6610  161.9747 N.3     1  UNL1       -0.2603
     10 H         138.5412  146.4285  162.6340 H       1  UNL1        0.1266
     11 C         139.8741  145.9997  161.1463 C.3     1  UNL1        0.2812
     12 O         140.6994  144.9040  160.5395 O.3     1  UNL1       -0.4561
     13 C         141.9530  144.4432  161.2223 C.ar    1  UNL1        0.1699
     14 C         142.3362  145.0178  162.5539 C.ar    1  UNL1        0.0689
     15 C         143.5898  144.5570  163.2367 C.ar    1  UNL1        0.1433
     16 F         143.9731  145.1315  164.5683 F       1  UNL1       -0.2041
     17 C         144.4601  143.5218  162.5880 C.ar    1  UNL1        0.0322
     18 C         144.0769  142.9473  161.2564 C.ar    1  UNL1        0.0351
     19 C         142.8233  143.4080  160.5736 C.ar    1  UNL1        0.1740
     20 F         142.4400  142.8335  159.2420 F       1  UNL1       -0.2010
     21 C         138.5645  140.5890  165.1784 C.3     1  UNL1        0.0604
     22 O         138.8654  140.9402  170.2842 O.2     1  UNL1       -0.2670
     23 C         140.0811  140.3125  169.6692 C.ar    1  UNL1        0.2611
     24 C         141.2168  139.8655  170.5411 C.ar    1  UNL1        0.0623
     25 C         142.4324  139.2377  169.9262 C.ar    1  UNL1        0.0254
     26 C         142.5124  139.0571  168.4393 C.ar    1  UNL1        0.0972
     27 N         143.5879  138.4696  167.5627 N.ar    1  UNL1       -0.2400
     28 C         143.5256  138.3548  166.0684 C.ar    1  UNL1        0.1282
     29 C         142.3179  138.8482  165.3281 C.ar    1  UNL1        0.1588
     30 F         142.2555  138.7334  163.8338 F       1  UNL1       -0.2027
     31 C         141.1726  139.4564  166.0820 C.ar    1  UNL1        0.0500
     32 C         141.3767  139.5041  167.5673 C.ar    1  UNL1        0.0806
     33 N         140.1610  140.1318  168.1823 N.ar    1  UNL1       -0.2915
     34 C         139.2057  140.4721  167.0770 C.3     1  UNL1        0.1402
     35 C         139.8309  140.0547  165.7790 C.3     1  UNL1        0.1335
     36 O         140.1913  139.7489  164.3554 O.3     1  UNL1       -0.3806
     37 H         139.4696  140.0302  163.7716 H       1  UNL1        0.2108
@<TRIPOS>BOND
     1    22    23    2
     2    23    24   ar
     3    24    25   ar
     4    25    26   ar
     5    26    27   ar
     6    27    28   ar
     7    28    29   ar
     8    29    30    1
     9    29    31   ar
    10    31    32   ar
    11    32    33   ar
    12    33    34    1
    13    34    35    1
    14    35    36    1
    15    35    21    1
    16    21     1    1
    17     1     2    1
    18     2     3    1
    19     3     4    1
    20     4     9    1
    21     9    11    1
    22    11    12    1
    23    12    13    1
    24    13    14   ar
    25    14    15   ar
    26    15    16    1
    27    15    17   ar
    28    17    18   ar
    29    18    19   ar
    30    19    20    1
    31     4     5    1
    32     5     6    1
    33     4     7    1
    34     7     8    1
    35    33    23   ar
    36     6     1    1
    37    32    26   ar
    38     8     1    1
    39    35    31    1
    40    19    13   ar
    41    36    37    1
    42     9    10    1
@<TRIPOS>MOLECULE
*****
 37 42 0 0 0
SMALL
GASTEIGER

@<TRIPOS>ATOM
      1 C         138.7311  139.0044  164.1270 C.3     1  UNL1        0.0955
      2 C         138.0645  140.3054  163.7904 C.3     1  UNL1        0.0287
      3 C         137.5416  140.5437  162.4049 C.3     1  UNL1        0.0194
      4 C         137.6853  139.4812  161.3559 C.3     1  UNL1        0.0725
      5 C         138.3519  138.1803  161.6924 C.3     1  UNL1        0.0194
      6 C         138.8748  137.9419  163.0780 C.3     1  UNL1        0.0287
      7 C         137.9875  139.3047  162.1012 C.3     1  UNL1        0.1562
      8 O         138.4604  139.0891  163.3540 O.3     1  UNL1       -0.3571
      9 N         137.1623  139.7196  159.9703 N.3     1  UNL1       -0.2603
     10 H         136.2769  140.2159  160.0711 H       1  UNL1        0.1266
     11 C         137.9829  140.4941  158.9820 C.3     1  UNL1        0.2812
     12 O         139.4615  140.6416  159.1869 O.3     1  UNL1       -0.4561
     13 C         139.9997  141.8158  159.9496 C.ar    1  UNL1        0.1699
     14 C         139.7131  143.2109  159.4790 C.ar    1  UNL1        0.0689
     15 C         140.2513  144.3850  160.2416 C.ar    1  UNL1        0.1433
     16 F         139.9647  145.7802  159.7710 F       1  UNL1       -0.2041
     17 C         141.0760  144.1641  161.4749 C.ar    1  UNL1        0.0322
     18 C         141.3626  142.7690  161.9455 C.ar    1  UNL1        0.0351
     19 C         140.8245  141.5948  161.1828 C.ar    1  UNL1        0.1740
     20 F         141.1110  140.1996  161.6534 F       1  UNL1       -0.2010
     21 C         139.2541  138.7660  165.5125 C.3     1  UNL1        0.0604
     22 O         138.1750  140.0921  170.3457 O.2     1  UNL1       -0.2670
     23 C         139.4051  140.7672  169.8156 C.ar    1  UNL1        0.2611
     24 C         140.1737  141.7167  170.6860 C.ar    1  UNL1        0.0623
     25 C         141.4038  142.3918  170.1558 C.ar    1  UNL1        0.0254
     26 C         141.8654  142.1174  168.7553 C.ar    1  UNL1        0.0972
     27 N         143.0413  142.6414  167.9723 N.ar    1  UNL1       -0.2400
     28 C         143.3796  142.2704  166.5588 C.ar    1  UNL1        0.1282
     29 C         142.5132  141.3019  165.8097 C.ar    1  UNL1        0.1588
     30 F         142.8515  140.9309  164.3963 F       1  UNL1       -0.2027
     31 C         141.3083  140.7044  166.4740 C.ar    1  UNL1        0.0500
     32 C         141.0968  141.1679  167.8849 C.ar    1  UNL1        0.0806
     33 N         139.8667  140.4928  168.4150 N.ar    1  UNL1       -0.2915
     34 C         139.3179  139.6121  167.3318 C.3     1  UNL1        0.1402
     35 C         140.2089  139.7429  166.1322 C.3     1  UNL1        0.1335
     36 O         140.9003  139.6695  164.8031 O.3     1  UNL1       -0.3806
     37 H         140.4196  139.0595  164.2218 H       1  UNL1        0.2108
@<TRIPOS>BOND
     1    22    23    2
     2    23    24   ar
     3    24    25   ar
     4    25    26   ar
     5    26    27   ar
     6    27    28   ar
     7    28    29   ar
     8    29    30    1
     9    29    31   ar
    10    31    32   ar
    11    32    33   ar
    12    33    34    1
    13    34    35    1
    14    35    36    1
    15    35    21    1
    16    21     1    1
    17     1     2    1
    18     2     3    1
    19     3     4    1
    20     4     9    1
    21     9    11    1
    22    11    12    1
    23    12    13    1
    24    13    14   ar
    25    14    15   ar
    26    15    16    1
    27    15    17   ar
    28    17    18   ar
    29    18    19   ar
    30    19    20    1
    31     4     5    1
    32     5     6    1
    33     4     7    1
    34     7     8    1
    35    33    23   ar
    36     6     1    1
    37    32    26   ar
    38     8     1    1
    39    35    31    1
    40    19    13   ar
    41    36    37    1
    42     9    10    1
@<TRIPOS>MOLECULE
*****
 37 42 0 0 0
SMALL
GASTEIGER

@<TRIPOS>ATOM
      1 C         138.4166  141.5704  164.8922 C.3     1  UNL1        0.0955
      2 C         139.4575  142.4445  165.5270 C.3     1  UNL1        0.0287
      3 C         140.3698  141.8827  166.5768 C.3     1  UNL1        0.0194
      4 C         140.2413  140.4471  166.9919 C.3     1  UNL1        0.0725
      5 C         139.2005  139.5731  166.3572 C.3     1  UNL1        0.0194
      6 C         138.2881  140.1348  165.3073 C.3     1  UNL1        0.0287
      7 C         139.7187  140.7100  166.4124 C.3     1  UNL1        0.1562
      8 O         138.8938  141.2179  165.4631 O.3     1  UNL1       -0.3571
      9 N         141.1536  139.8853  168.0418 N.3     1  UNL1       -0.2603
     10 H         140.7599  138.9878  168.3244 H       1  UNL1        0.1266
     11 C         142.6002  139.6438  167.7270 C.3     1  UNL1        0.2812
     12 O         142.9946  138.4945  166.8474 O.3     1  UNL1       -0.4561
     13 C         143.0519  138.6740  165.3593 C.ar    1  UNL1        0.1699
     14 C         144.1095  139.5453  164.7491 C.ar    1  UNL1        0.0689
     15 C         144.1667  139.7247  163.2611 C.ar    1  UNL1        0.1433
     16 F         145.2242  140.5961  162.6509 F       1  UNL1       -0.2041
     17 C         143.1664  139.0329  162.3831 C.ar    1  UNL1        0.0322
     18 C         142.1088  138.1615  162.9933 C.ar    1  UNL1        0.0351
     19 C         142.0516  137.9821  164.4814 C.ar    1  UNL1        0.1740
     20 F         140.9940  137.1108  165.0917 F       1  UNL1       -0.2010
     21 C         137.5043  142.1322  163.8423 C.3     1  UNL1        0.0604
     22 O         140.2470  146.0910  162.0851 O.2     1  UNL1       -0.2670
     23 C         139.9768  145.0553  161.0342 C.ar    1  UNL1        0.2611
     24 C         140.4973  145.2474  159.6406 C.ar    1  UNL1        0.0623
     25 C         140.2271  144.2117  158.5897 C.ar    1  UNL1        0.0254
     26 C         139.4364  142.9840  158.9324 C.ar    1  UNL1        0.0972
     27 N         139.0196  141.8012  158.0973 N.ar    1  UNL1       -0.2400
     28 C         138.2181  140.6311  158.5856 C.ar    1  UNL1        0.1282
     29 C         137.7646  140.5767  160.0144 C.ar    1  UNL1        0.1588
     30 F         136.9631  139.4066  160.5027 F       1  UNL1       -0.2027
     31 C         138.1124  141.6923  160.9547 C.ar    1  UNL1        0.0500
     32 C         138.9159  142.7920  160.3260 C.ar    1  UNL1        0.0806
     33 N         139.1861  143.8276  161.3769 N.ar    1  UNL1       -0.2915
     34 C         138.5497  143.3680  162.6551 C.3     1  UNL1        0.1402
     35 C         137.8861  142.0483  162.3942 C.3     1  UNL1        0.1335
     36 O         137.1427  140.7462  162.4360 O.3     1  UNL1       -0.3806
     37 H         136.7961  140.6003  163.3301 H       1  UNL1        0.2108
@<TRIPOS>BOND
     1    22    23    2
     2    23    24   ar
     3    24    25   ar
     4    25    26   ar
     5    26    27   ar
     6    27    28   ar
     7    28    29   ar
     8    29    30    1
     9    29    31   ar
    10    31    32   ar
    11    32    33   ar
    12    33    34    1
    13    34    35    1
    14    35    36    1
    15    35    21    1
    16    21     1    1
    17     1     2    1
    18     2     3    1
    19     3     4    1
    20     4     9    1
    21     9    11    1
    22    11    12    1
    23    12    13    1
    24    13    14   ar
    25    14    15   ar
    26    15    16    1
    27    15    17   ar
    28    17    18   ar
    29    18    19   ar
    30    19    20    1
    31     4     5    1
    32     5     6    1
    33     4     7    1
    34     7     8    1
    35    33    23   ar
    36     6     1    1
    37    32    26   ar
    38     8     1    1
    39    35    31    1
    40    19    13   ar
    41    36    37    1
    42     9    10    1
@<TRIPOS>MOLECULE
*****
 37 42 0 0 0
SMALL
GASTEIGER

@<TRIPOS>ATOM
      1 C         138.6427  138.3777  163.6277 C.3     1  UNL1        0.0955
      2 C         138.4015  139.8044  164.0236 C.3     1  UNL1        0.0287
      3 C         138.3493  140.1816  165.4744 C.3     1  UNL1        0.0194
      4 C         138.5384  139.1323  166.5295 C.3     1  UNL1        0.0725
      5 C         138.7796  137.7057  166.1336 C.3     1  UNL1        0.0194
      6 C         138.8317  137.3284  164.6828 C.3     1  UNL1        0.0287
      7 C         138.5753  138.8775  165.7473 C.3     1  UNL1        0.1562
      8 O         138.6225  138.5364  164.4354 O.3     1  UNL1       -0.3571
      9 N         138.4863  139.5095  167.9803 N.3     1  UNL1       -0.2603
     10 H         138.2217  138.6689  168.4938 H       1  UNL1        0.1266
     11 C         139.7058  140.0635  168.6554 C.3     1  UNL1        0.2812
     12 O         140.5976  141.0225  167.9239 O.3     1  UNL1       -0.4561
     13 C         141.6654  140.5035  167.0071 C.ar    1  UNL1        0.1699
     14 C         142.3748  139.2223  167.3316 C.ar    1  UNL1        0.0689
     15 C         143.4425  138.7034  166.4148 C.ar    1  UNL1        0.1433
     16 F         144.1519  137.4222  166.7392 F       1  UNL1       -0.2041
     17 C         143.8010  139.4656  165.1736 C.ar    1  UNL1        0.0322
     18 C         143.0916  140.7469  164.8492 C.ar    1  UNL1        0.0351
     19 C         142.0238  141.2658  165.7660 C.ar    1  UNL1        0.1740
     20 F         141.3144  142.5470  165.4416 F       1  UNL1       -0.2010
     21 C         138.6948  138.0005  162.1769 C.3     1  UNL1        0.0604
     22 O         137.7172  140.1918  157.6464 O.2     1  UNL1       -0.2670
     23 C         139.1837  140.0063  157.9012 C.ar    1  UNL1        0.2611
     24 C         140.1849  140.4484  156.8756 C.ar    1  UNL1        0.0623
     25 C         141.6514  140.2629  157.1303 C.ar    1  UNL1        0.0254
     26 C         142.1167  139.6352  158.4107 C.ar    1  UNL1        0.0972
     27 N         143.4991  139.3296  158.9266 N.ar    1  UNL1       -0.2400
     28 C         143.8129  138.6899  160.2466 C.ar    1  UNL1        0.1282
     29 C         142.7005  138.2992  161.1739 C.ar    1  UNL1        0.1588
     30 F         143.0143  137.6595  162.4939 F       1  UNL1       -0.2027
     31 C         141.2743  138.5483  160.7814 C.ar    1  UNL1        0.0500
     32 C         141.1155  139.1931  159.4364 C.ar    1  UNL1        0.0806
     33 N         139.6490  139.3786  159.1816 N.ar    1  UNL1       -0.2915
     34 C         138.9015  138.8485  160.3692 C.3     1  UNL1        0.1402
     35 C         139.9060  138.3354  161.3579 C.3     1  UNL1        0.1335
     36 O         140.6574  137.7522  162.5178 O.3     1  UNL1       -0.3806
     37 H         140.0286  137.4586  163.1956 H       1  UNL1        0.2108
@<TRIPOS>BOND
     1    22    23    2
     2    23    24   ar
     3    24    25   ar
     4    25    26   ar
     5    26    27   ar
     6    27    28   ar
     7    28    29   ar
     8    29    30    1
     9    29    31   ar
    10    31    32   ar
    11    32    33   ar
    12    33    34    1
    13    34    35    1
    14    35    36    1
    15    35    21    1
    16    21     1    1
    17     1     2    1
    18     2     3    1
    19     3     4    1
    20     4     9    1
    21     9    11    1
    22    11    12    1
    23    12    13    1
    24    13    14   ar
    25    14    15   ar
    26    15    16    1
    27    15    17   ar
    28    17    18   ar
    29    18    19   ar
    30    19    20    1
    31     4     5    1
    32     5     6    1
    33     4     7    1
    34     7     8    1
    35    33    23   ar
    36     6     1    1
    37    32    26   ar
    38     8     1    1
    39    35    31    1
    40    19    13   ar
    41    36    37    1
    42     9    10    1
@<TRIPOS>MOLECULE
*****
 37 42 0 0 0
SMALL
GASTEIGER

@<TRIPOS>ATOM
      1 C         138.7446  138.9797  164.1759 C.3     1  UNL1        0.0955
      2 C         138.0941  140.2965  163.8708 C.3     1  UNL1        0.0287
      3 C         137.5399  140.5599  162.5020 C.3     1  UNL1        0.0194
      4 C         137.6362  139.5067  161.4384 C.3     1  UNL1        0.0725
      5 C         138.2867  138.1900  161.7435 C.3     1  UNL1        0.0194
      6 C         138.8410  137.9265  163.1122 C.3     1  UNL1        0.0287
      7 C         137.9544  139.3163  162.1736 C.3     1  UNL1        0.1562
      8 O         138.4555  139.0781  163.4112 O.3     1  UNL1       -0.3571
      9 N         137.0820  139.7701  160.0696 N.3     1  UNL1       -0.2603
     10 H         136.3578  140.4804  160.1768 H       1  UNL1        0.1266
     11 C         137.9890  140.2390  158.9708 C.3     1  UNL1        0.2812
     12 O         138.9125  139.2689  158.2954 O.3     1  UNL1       -0.4561
     13 C         140.3508  139.1872  158.7134 C.ar    1  UNL1        0.1699
     14 C         140.8896  140.1417  159.7375 C.ar    1  UNL1        0.0689
     15 C         142.3278  140.0598  160.1554 C.ar    1  UNL1        0.1433
     16 F         142.8666  141.0143  161.1795 F       1  UNL1       -0.2041
     17 C         143.2272  139.0236  159.5494 C.ar    1  UNL1        0.0322
     18 C         142.6884  138.0691  158.5254 C.ar    1  UNL1        0.0351
     19 C         141.2502  138.1509  158.1074 C.ar    1  UNL1        0.1740
     20 F         140.7113  137.1965  157.0834 F       1  UNL1       -0.2010
     21 C         139.2988  138.7163  165.5446 C.3     1  UNL1        0.0604
     22 O         138.1123  140.0794  170.3422 O.2     1  UNL1       -0.2670
     23 C         139.3514  140.7541  169.8328 C.ar    1  UNL1        0.2611
     24 C         140.0981  141.7134  170.7114 C.ar    1  UNL1        0.0623
     25 C         141.3372  142.3881  170.2020 C.ar    1  UNL1        0.0254
     26 C         141.8295  142.1034  168.8140 C.ar    1  UNL1        0.0972
     27 N         143.0203  142.6247  168.0519 N.ar    1  UNL1       -0.2400
     28 C         143.3900  142.2430  166.6492 C.ar    1  UNL1        0.1282
     29 C         142.5428  141.2654  165.8900 C.ar    1  UNL1        0.1588
     30 F         142.9126  140.8837  164.4873 F       1  UNL1       -0.2027
     31 C         141.3259  140.6695  166.5334 C.ar    1  UNL1        0.0500
     32 C         141.0828  141.1441  167.9354 C.ar    1  UNL1        0.0806
     33 N         139.8437  140.4694  168.4448 N.ar    1  UNL1       -0.2915
     34 C         139.3211  139.5778  167.3576 C.3     1  UNL1        0.1402
     35 C         140.2371  139.7015  166.1763 C.3     1  UNL1        0.1335
     36 O         140.9571  139.6192  164.8629 O.3     1  UNL1       -0.3806
     37 H         140.4909  139.0027  164.2767 H       1  UNL1        0.2108
@<TRIPOS>BOND
     1    22    23    2
     2    23    24   ar
     3    24    25   ar
     4    25    26   ar
     5    26    27   ar
     6    27    28   ar
     7    28    29   ar
     8    29    30    1
     9    29    31   ar
    10    31    32   ar
    11    32    33   ar
    12    33    34    1
    13    34    35    1
    14    35    36    1
    15    35    21    1
    16    21     1    1
    17     1     2    1
    18     2     3    1
    19     3     4    1
    20     4     9    1
    21     9    11    1
    22    11    12    1
    23    12    13    1
    24    13    14   ar
    25    14    15   ar
    26    15    16    1
    27    15    17   ar
    28    17    18   ar
    29    18    19   ar
    30    19    20    1
    31     4     5    1
    32     5     6    1
    33     4     7    1
    34     7     8    1
    35    33    23   ar
    36     6     1    1
    37    32    26   ar
    38     8     1    1
    39    35    31    1
    40    19    13   ar
    41    36    37    1
    42     9    10    1
