@<TRIPOS>MOLECULE
*****
 27 30 0 0 0
SMALL
GASTEIGER

@<TRIPOS>ATOM
      1 C         139.8725  138.1981  162.8608 C.ar    1  UNL1        0.1384
      2 C         138.8667  137.6543  163.8318 C.ar    1  UNL1        0.0381
      3 C         138.8545  138.1413  165.2505 C.ar    1  UNL1        0.0172
      4 C         139.8481  139.1720  165.6982 C.ar    1  UNL1        0.0430
      5 C         140.8538  139.7158  164.7273 C.ar    1  UNL1        0.0207
      6 C         140.8660  139.2288  163.3086 C.ar    1  UNL1        0.0362
      7 C         141.8474  140.7465  165.1750 C.3     1  UNL1        0.1402
      8 O         142.8532  141.2903  164.2040 O.3     1  UNL1       -0.3518
      9 C         143.8467  142.3210  164.6518 C.3     1  UNL1        0.1425
     10 C         143.8345  142.8079  166.0705 C.3     1  UNL1        0.0322
     11 C         142.8288  142.2641  167.0415 C.3     1  UNL1        0.0070
     12 C         141.8353  141.2334  166.5937 C.3     1  UNL1        0.0494
     13 C         140.8295  140.6896  167.5647 C.3     1  UNL1        0.0717
     14 N         139.8359  139.6589  167.1170 N.pl3   1  UNL1       -0.3341
     15 H         139.1758  139.3020  167.7542 H       1  UNL1        0.1468
     16 C         140.8173  141.1766  168.9834 C.3     1  UNL1        0.0230
     17 C         139.9902  142.3700  169.3597 C.3     1  UNL1        0.0338
     18 C         139.9780  142.8570  170.7784 C.3     1  UNL1        0.1422
     19 O         140.7929  142.1504  171.8208 O.3     1  UNL1       -0.3538
     20 C         141.6200  140.9570  171.4446 C.3     1  UNL1        0.1422
     21 C         141.6322  140.4701  170.0259 C.3     1  UNL1        0.0338
     22 O         139.8847  137.7112  161.4421 O.3     1  UNL1       -0.4755
     23 C         139.2645  138.5426  160.3584 C.3     1  UNL1        0.2054
     24 C         138.0022  139.3066  160.6288 C.3     1  UNL1        0.0473
     25 C         138.6319  141.7941  160.2221 C.3     1  UNL1        0.0001
     26 C         138.0728  140.7245  161.1128 C.3     1  UNL1        0.0037
     27 C         137.5843  141.0729  162.4875 C.3     1  UNL1        0.0001
@<TRIPOS>BOND
     1    25    26    1
     2    26    27    1
     3    26    24    1
     4    24    23    1
     5    23    22    1
     6    22     1    1
     7     1     2   ar
     8     2     3   ar
     9     3     4   ar
    10     4     5   ar
    11     5     6   ar
    12     5     7    1
    13     7     8    1
    14     8     9    1
    15     9    10    1
    16    10    11    1
    17    12    11    1
    18    12    13    1
    19    13    16    1
    20    16    17    1
    21    17    18    1
    22    18    19    1
    23    19    20    1
    24    20    21    1
    25    13    14    1
    26     6     1   ar
    27    12     7    1
    28    21    16    1
    29    14     4    1
    30    14    15    1
@<TRIPOS>MOLECULE
*****
 27 30 0 0 0
SMALL
GASTEIGER

@<TRIPOS>ATOM
      1 C         143.7150  138.7447  162.8176 C.ar    1  UNL1        0.1384
      2 C         144.7385  139.6743  163.3994 C.ar    1  UNL1        0.0381
      3 C         144.4418  140.4170  164.6683 C.ar    1  UNL1        0.0172
      4 C         143.1215  140.2303  165.3554 C.ar    1  UNL1        0.0430
      5 C         142.0980  139.3009  164.7736 C.ar    1  UNL1        0.0207
      6 C         142.3948  138.5581  163.5047 C.ar    1  UNL1        0.0362
      7 C         140.7777  139.1142  165.4607 C.3     1  UNL1        0.1402
      8 O         139.7543  138.1847  164.8789 O.3     1  UNL1       -0.3518
      9 C         138.4341  137.9980  165.5660 C.3     1  UNL1        0.1425
     10 C         138.1373  138.7408  166.8350 C.3     1  UNL1        0.0322
     11 C         139.1608  139.6703  167.4168 C.3     1  UNL1        0.0070
     12 C         140.4810  139.8569  166.7297 C.3     1  UNL1        0.0494
     13 C         141.5046  140.7865  167.3115 C.3     1  UNL1        0.0717
     14 N         142.8248  140.9731  166.6244 N.pl3   1  UNL1       -0.3341
     15 H         143.4965  141.5832  167.0063 H       1  UNL1        0.1468
     16 C         141.2078  141.5292  168.5804 C.3     1  UNL1        0.0230
     17 C         140.6154  142.9062  168.5225 C.3     1  UNL1        0.0338
     18 C         140.3187  143.6489  169.7914 C.3     1  UNL1        0.1422
     19 O         140.6143  143.0148  171.1183 O.3     1  UNL1       -0.3538
     20 C         141.2067  141.6380  171.1762 C.3     1  UNL1        0.1422
     21 C         141.5034  140.8952  169.9073 C.3     1  UNL1        0.0338
     22 O         144.0117  138.0020  161.5486 O.3     1  UNL1       -0.4755
     23 C         143.3763  138.4343  160.2604 C.3     1  UNL1        0.2054
     24 C         143.3399  139.8881  159.8929 C.3     1  UNL1        0.0473
     25 C         142.6116  141.9864  161.2407 C.3     1  UNL1        0.0001
     26 C         142.2561  140.7719  160.4353 C.3     1  UNL1        0.0037
     27 C         140.8169  140.4412  160.1722 C.3     1  UNL1        0.0001
@<TRIPOS>BOND
     1    25    26    1
     2    26    27    1
     3    26    24    1
     4    24    23    1
     5    23    22    1
     6    22     1    1
     7     1     2   ar
     8     2     3   ar
     9     3     4   ar
    10     4     5   ar
    11     5     6   ar
    12     5     7    1
    13     7     8    1
    14     8     9    1
    15     9    10    1
    16    10    11    1
    17    12    11    1
    18    12    13    1
    19    13    16    1
    20    16    17    1
    21    17    18    1
    22    18    19    1
    23    19    20    1
    24    20    21    1
    25    13    14    1
    26     6     1   ar
    27    12     7    1
    28    21    16    1
    29    14     4    1
    30    14    15    1
@<TRIPOS>MOLECULE
*****
 27 30 0 0 0
SMALL
GASTEIGER

@<TRIPOS>ATOM
      1 C         144.5037  142.2565  162.2855 C.ar    1  UNL1        0.1384
      2 C         145.1634  141.3791  163.3078 C.ar    1  UNL1        0.0381
      3 C         144.5187  141.1713  164.6461 C.ar    1  UNL1        0.0172
      4 C         143.2142  141.8409  164.9622 C.ar    1  UNL1        0.0430
      5 C         142.5545  142.7183  163.9400 C.ar    1  UNL1        0.0207
      6 C         143.1992  142.9261  162.6017 C.ar    1  UNL1        0.0362
      7 C         141.2499  143.3880  164.2561 C.3     1  UNL1        0.1402
      8 O         140.5902  144.2653  163.2339 O.3     1  UNL1       -0.3518
      9 C         139.2858  144.9349  163.5500 C.3     1  UNL1        0.1425
     10 C         138.6410  144.7271  164.8883 C.3     1  UNL1        0.0322
     11 C         139.3007  143.8498  165.9105 C.3     1  UNL1        0.0070
     12 C         140.6052  143.1802  165.5944 C.3     1  UNL1        0.0494
     13 C         141.2649  142.3027  166.6167 C.3     1  UNL1        0.0717
     14 N         142.5694  141.6331  166.3005 N.pl3   1  UNL1       -0.3341
     15 H         143.0024  141.0573  166.9714 H       1  UNL1        0.1468
     16 C         140.6202  142.0949  167.9550 C.3     1  UNL1        0.0230
     17 C         139.9546  140.7886  168.2721 C.3     1  UNL1        0.0338
     18 C         139.3099  140.5808  169.6104 C.3     1  UNL1        0.1422
     19 O         139.3307  141.6794  170.6316 O.3     1  UNL1       -0.3538
     20 C         139.9962  142.9857  170.3145 C.3     1  UNL1        0.1422
     21 C         140.6410  143.1934  168.9761 C.3     1  UNL1        0.0338
     22 O         145.1484  142.4643  160.9472 O.3     1  UNL1       -0.4755
     23 C         144.3119  142.4543  159.7021 C.3     1  UNL1        0.2054
     24 C         143.8864  141.1503  159.0950 C.3     1  UNL1        0.0473
     25 C         141.7282  140.1586  160.1480 C.3     1  UNL1        0.0001
     26 C         143.2135  140.1122  159.9432 C.3     1  UNL1        0.0037
     27 C         144.0258  139.0278  160.5866 C.3     1  UNL1        0.0001
@<TRIPOS>BOND
     1    25    26    1
     2    26    27    1
     3    26    24    1
     4    24    23    1
     5    23    22    1
     6    22     1    1
     7     1     2   ar
     8     2     3   ar
     9     3     4   ar
    10     4     5   ar
    11     5     6   ar
    12     5     7    1
    13     7     8    1
    14     8     9    1
    15     9    10    1
    16    10    11    1
    17    12    11    1
    18    12    13    1
    19    13    16    1
    20    16    17    1
    21    17    18    1
    22    18    19    1
    23    19    20    1
    24    20    21    1
    25    13    14    1
    26     6     1   ar
    27    12     7    1
    28    21    16    1
    29    14     4    1
    30    14    15    1
@<TRIPOS>MOLECULE
*****
 27 30 0 0 0
SMALL
GASTEIGER

@<TRIPOS>ATOM
      1 C         138.4750  142.9626  162.4083 C.ar    1  UNL1        0.1384
      2 C         137.9829  144.0630  163.3012 C.ar    1  UNL1        0.0381
      3 C         138.4038  144.1059  164.7403 C.ar    1  UNL1        0.0172
      4 C         139.3168  143.0484  165.2865 C.ar    1  UNL1        0.0430
      5 C         139.8088  141.9481  164.3936 C.ar    1  UNL1        0.0207
      6 C         139.3879  141.9052  162.9545 C.ar    1  UNL1        0.0362
      7 C         140.7218  140.8906  164.9399 C.3     1  UNL1        0.1402
      8 O         141.2138  139.7904  164.0470 O.3     1  UNL1       -0.3518
      9 C         142.1268  138.7330  164.5932 C.3     1  UNL1        0.1425
     10 C         142.5477  138.7758  166.0323 C.3     1  UNL1        0.0322
     11 C         142.0557  139.8761  166.9252 C.3     1  UNL1        0.0070
     12 C         141.1427  140.9335  166.3790 C.3     1  UNL1        0.0494
     13 C         140.6507  142.0339  167.2718 C.3     1  UNL1        0.0717
     14 N         139.7377  143.0913  166.7256 N.pl3   1  UNL1       -0.3341
     15 H         139.4148  143.8135  167.3116 H       1  UNL1        0.1468
     16 C         141.0716  142.0768  168.7109 C.3     1  UNL1        0.0230
     17 C         140.2125  141.4400  169.7629 C.3     1  UNL1        0.0338
     18 C         140.6334  141.4829  171.2020 C.3     1  UNL1        0.1422
     19 O         141.9134  142.1625  171.5891 O.3     1  UNL1       -0.3538
     20 C         142.7724  142.7992  170.5372 C.3     1  UNL1        0.1422
     21 C         142.3515  142.7563  169.0981 C.3     1  UNL1        0.0338
     22 O         138.0541  142.9198  160.9692 O.3     1  UNL1       -0.4755
     23 C         139.0892  142.8275  159.8875 C.3     1  UNL1        0.2054
     24 C         139.9429  144.0174  159.5628 C.3     1  UNL1        0.0473
     25 C         140.0405  146.0428  161.1871 C.3     1  UNL1        0.0001
     26 C         140.6327  144.7681  160.6630 C.3     1  UNL1        0.0037
     27 C         141.9146  144.2442  161.2392 C.3     1  UNL1        0.0001
@<TRIPOS>BOND
     1    25    26    1
     2    26    27    1
     3    26    24    1
     4    24    23    1
     5    23    22    1
     6    22     1    1
     7     1     2   ar
     8     2     3   ar
     9     3     4   ar
    10     4     5   ar
    11     5     6   ar
    12     5     7    1
    13     7     8    1
    14     8     9    1
    15     9    10    1
    16    10    11    1
    17    12    11    1
    18    12    13    1
    19    13    16    1
    20    16    17    1
    21    17    18    1
    22    18    19    1
    23    19    20    1
    24    20    21    1
    25    13    14    1
    26     6     1   ar
    27    12     7    1
    28    21    16    1
    29    14     4    1
    30    14    15    1
@<TRIPOS>MOLECULE
*****
 27 30 0 0 0
SMALL
GASTEIGER

@<TRIPOS>ATOM
      1 C         138.5551  143.0493  162.3367 C.ar    1  UNL1        0.1384
      2 C         138.1050  144.1935  163.1960 C.ar    1  UNL1        0.0381
      3 C         138.5170  144.2566  164.6370 C.ar    1  UNL1        0.0172
      4 C         139.3790  143.1755  165.2186 C.ar    1  UNL1        0.0430
      5 C         139.8290  142.0314  164.3593 C.ar    1  UNL1        0.0207
      6 C         139.4171  141.9683  162.9184 C.ar    1  UNL1        0.0362
      7 C         140.6910  140.9503  164.9410 C.3     1  UNL1        0.1402
      8 O         141.1410  139.8062  164.0817 O.3     1  UNL1       -0.3518
      9 C         142.0030  138.7252  164.6634 C.3     1  UNL1        0.1425
     10 C         142.4149  138.7883  166.1043 C.3     1  UNL1        0.0322
     11 C         141.9649  139.9324  166.9636 C.3     1  UNL1        0.0070
     12 C         141.1029  141.0134  166.3819 C.3     1  UNL1        0.0494
     13 C         140.6529  142.1576  167.2412 C.3     1  UNL1        0.0717
     14 N         139.7909  143.2386  166.6596 N.pl3   1  UNL1       -0.3341
     15 H         139.4955  143.9896  167.2235 H       1  UNL1        0.1468
     16 C         141.0648  142.2207  168.6822 C.3     1  UNL1        0.0230
     17 C         142.4218  142.7421  169.0521 C.3     1  UNL1        0.0338
     18 C         142.8337  142.8052  170.4931 C.3     1  UNL1        0.1422
     19 O         141.8887  142.3469  171.5641 O.3     1  UNL1       -0.3538
     20 C         140.5317  141.8256  171.1941 C.3     1  UNL1        0.1422
     21 C         140.1198  141.7625  169.7531 C.3     1  UNL1        0.0338
     22 O         138.1432  142.9862  160.8958 O.3     1  UNL1       -0.4755
     23 C         138.7277  141.9399  159.9938 C.3     1  UNL1        0.2054
     24 C         138.0187  140.6316  159.8048 C.3     1  UNL1        0.0473
     25 C         139.7891  138.7468  160.0565 C.3     1  UNL1        0.0001
     26 C         138.5158  139.4013  160.5042 C.3     1  UNL1        0.0037
     27 C         137.7396  138.8255  161.6513 C.3     1  UNL1        0.0001
@<TRIPOS>BOND
     1    25    26    1
     2    26    27    1
     3    26    24    1
     4    24    23    1
     5    23    22    1
     6    22     1    1
     7     1     2   ar
     8     2     3   ar
     9     3     4   ar
    10     4     5   ar
    11     5     6   ar
    12     5     7    1
    13     7     8    1
    14     8     9    1
    15     9    10    1
    16    10    11    1
    17    12    11    1
    18    12    13    1
    19    13    16    1
    20    16    17    1
    21    17    18    1
    22    18    19    1
    23    19    20    1
    24    20    21    1
    25    13    14    1
    26     6     1   ar
    27    12     7    1
    28    21    16    1
    29    14     4    1
    30    14    15    1
@<TRIPOS>MOLECULE
*****
 27 30 0 0 0
SMALL
GASTEIGER

@<TRIPOS>ATOM
      1 C         141.7961  139.8201  168.0230 C.ar    1  UNL1        0.1384
      2 C         140.3420  140.1777  167.9345 C.ar    1  UNL1        0.0381
      3 C         139.8355  140.9756  166.7697 C.ar    1  UNL1        0.0172
      4 C         140.7830  141.4159  165.6934 C.ar    1  UNL1        0.0430
      5 C         142.2370  141.0582  165.7819 C.ar    1  UNL1        0.0207
      6 C         142.7436  140.2603  166.9467 C.ar    1  UNL1        0.0362
      7 C         143.1846  141.4985  164.7056 C.3     1  UNL1        0.1402
      8 O         144.6386  141.1408  164.7941 O.3     1  UNL1       -0.3518
      9 C         145.5861  141.5811  163.7179 C.3     1  UNL1        0.1425
     10 C         145.0796  142.3790  162.5530 C.3     1  UNL1        0.0322
     11 C         143.6256  142.7366  162.4645 C.3     1  UNL1        0.0070
     12 C         142.6781  142.2964  163.5408 C.3     1  UNL1        0.0494
     13 C         141.2240  142.6540  163.4523 C.3     1  UNL1        0.0717
     14 N         140.2765  142.2138  164.5286 N.pl3   1  UNL1       -0.3341
     15 H         139.3222  142.4485  164.4705 H       1  UNL1        0.1468
     16 C         140.7175  143.4520  162.2875 C.3     1  UNL1        0.0230
     17 C         140.2247  142.7513  161.0560 C.3     1  UNL1        0.0338
     18 C         139.7182  143.5492  159.8912 C.3     1  UNL1        0.1422
     19 O         139.7044  145.0478  159.9579 O.3     1  UNL1       -0.3538
     20 C         140.1971  145.7483  161.1893 C.3     1  UNL1        0.1422
     21 C         140.7037  144.9504  162.3541 C.3     1  UNL1        0.0338
     22 O         142.3026  139.0222  169.1878 O.3     1  UNL1       -0.4755
     23 C         142.7715  139.7219  170.4290 C.3     1  UNL1        0.2054
     24 C         142.1357  141.0147  170.8468 C.3     1  UNL1        0.0473
     25 C         141.5211  143.3668  169.9306 C.3     1  UNL1        0.0001
     26 C         142.5425  142.2984  170.1862 C.3     1  UNL1        0.0037
     27 C         143.9706  142.5138  169.7812 C.3     1  UNL1        0.0001
@<TRIPOS>BOND
     1    25    26    1
     2    26    27    1
     3    26    24    1
     4    24    23    1
     5    23    22    1
     6    22     1    1
     7     1     2   ar
     8     2     3   ar
     9     3     4   ar
    10     4     5   ar
    11     5     6   ar
    12     5     7    1
    13     7     8    1
    14     8     9    1
    15     9    10    1
    16    10    11    1
    17    12    11    1
    18    12    13    1
    19    13    16    1
    20    16    17    1
    21    17    18    1
    22    18    19    1
    23    19    20    1
    24    20    21    1
    25    13    14    1
    26     6     1   ar
    27    12     7    1
    28    21    16    1
    29    14     4    1
    30    14    15    1
@<TRIPOS>MOLECULE
*****
 27 30 0 0 0
SMALL
GASTEIGER

@<TRIPOS>ATOM
      1 C         143.8593  140.9974  162.5647 C.ar    1  UNL1        0.1384
      2 C         144.7515  141.8714  163.3955 C.ar    1  UNL1        0.0381
      3 C         144.3917  142.1714  164.8204 C.ar    1  UNL1        0.0172
      4 C         143.1396  141.5975  165.4146 C.ar    1  UNL1        0.0430
      5 C         142.2474  140.7236  164.5838 C.ar    1  UNL1        0.0207
      6 C         142.6072  140.4235  163.1589 C.ar    1  UNL1        0.0362
      7 C         140.9953  140.1497  165.1780 C.3     1  UNL1        0.1402
      8 O         140.1031  139.2757  164.3472 O.3     1  UNL1       -0.3518
      9 C         138.8511  138.7019  164.9414 C.3     1  UNL1        0.1425
     10 C         138.4913  139.0019  166.3663 C.3     1  UNL1        0.0322
     11 C         139.3834  139.8759  167.1971 C.3     1  UNL1        0.0070
     12 C         140.6355  140.4497  166.6029 C.3     1  UNL1        0.0494
     13 C         141.5277  141.3237  167.4337 C.3     1  UNL1        0.0717
     14 N         142.7797  141.8976  166.8395 N.pl3   1  UNL1       -0.3341
     15 H         143.3653  142.4712  167.3848 H       1  UNL1        0.1468
     16 C         141.1679  141.6238  168.8587 C.3     1  UNL1        0.0230
     17 C         141.6470  140.7235  169.9587 C.3     1  UNL1        0.0338
     18 C         141.2871  141.0235  171.3837 C.3     1  UNL1        0.1422
     19 O         140.4482  142.2239  171.7086 O.3     1  UNL1       -0.3538
     20 C         139.9692  143.1241  170.6085 C.3     1  UNL1        0.1422
     21 C         140.3290  142.8240  169.1836 C.3     1  UNL1        0.0338
     22 O         144.2191  140.6973  161.1397 O.3     1  UNL1       -0.4755
     23 C         143.6255  141.5120  160.0288 C.3     1  UNL1        0.2054
     24 C         143.4715  142.9957  160.1864 C.3     1  UNL1        0.0473
     25 C         140.8902  143.2893  160.1662 C.3     1  UNL1        0.0001
     26 C         142.2234  143.5594  160.7983 C.3     1  UNL1        0.0037
     27 C         142.3085  144.3932  162.0422 C.3     1  UNL1        0.0001
@<TRIPOS>BOND
     1    25    26    1
     2    26    27    1
     3    26    24    1
     4    24    23    1
     5    23    22    1
     6    22     1    1
     7     1     2   ar
     8     2     3   ar
     9     3     4   ar
    10     4     5   ar
    11     5     6   ar
    12     5     7    1
    13     7     8    1
    14     8     9    1
    15     9    10    1
    16    10    11    1
    17    12    11    1
    18    12    13    1
    19    13    16    1
    20    16    17    1
    21    17    18    1
    22    18    19    1
    23    19    20    1
    24    20    21    1
    25    13    14    1
    26     6     1   ar
    27    12     7    1
    28    21    16    1
    29    14     4    1
    30    14    15    1
@<TRIPOS>MOLECULE
*****
 27 30 0 0 0
SMALL
GASTEIGER

@<TRIPOS>ATOM
      1 C         139.9933  138.2142  162.7853 C.ar    1  UNL1        0.1384
      2 C         138.9605  137.6730  163.7290 C.ar    1  UNL1        0.0381
      3 C         138.9104  138.1614  165.1464 C.ar    1  UNL1        0.0172
      4 C         139.8931  139.1910  165.6200 C.ar    1  UNL1        0.0430
      5 C         140.9258  139.7322  164.6763 C.ar    1  UNL1        0.0207
      6 C         140.9759  139.2437  163.2590 C.ar    1  UNL1        0.0362
      7 C         141.9085  140.7618  165.1500 C.3     1  UNL1        0.1402
      8 O         142.9412  141.3029  164.2063 O.3     1  UNL1       -0.3518
      9 C         143.9238  142.3325  164.6800 C.3     1  UNL1        0.1425
     10 C         143.8737  142.8209  166.0973 C.3     1  UNL1        0.0322
     11 C         142.8410  142.2798  167.0410 C.3     1  UNL1        0.0070
     12 C         141.8584  141.2502  166.5674 C.3     1  UNL1        0.0494
     13 C         140.8256  140.7090  167.5111 C.3     1  UNL1        0.0717
     14 N         139.8430  139.6794  167.0374 N.pl3   1  UNL1       -0.3341
     15 H         139.1651  139.3242  167.6568 H       1  UNL1        0.1468
     16 C         140.7755  141.1974  168.9284 C.3     1  UNL1        0.0230
     17 C         139.9864  142.4264  169.2708 C.3     1  UNL1        0.0338
     18 C         139.9363  142.9148  170.6881 C.3     1  UNL1        0.1422
     19 O         140.6753  142.1742  171.7632 O.3     1  UNL1       -0.3538
     20 C         141.4643  140.9454  171.4208 C.3     1  UNL1        0.1422
     21 C         141.5144  140.4569  170.0034 C.3     1  UNL1        0.0338
     22 O         140.0434  137.7258  161.3679 O.3     1  UNL1       -0.4755
     23 C         140.8636  138.4611  160.3498 C.3     1  UNL1        0.2054
     24 C         142.3034  138.0960  160.1410 C.3     1  UNL1        0.0473
     25 C         144.1732  139.4047  161.3823 C.3     1  UNL1        0.0001
     26 C         143.3566  139.1640  160.1474 C.3     1  UNL1        0.0037
     27 C         143.5931  139.9913  158.9188 C.3     1  UNL1        0.0001
@<TRIPOS>BOND
     1    25    26    1
     2    26    27    1
     3    26    24    1
     4    24    23    1
     5    23    22    1
     6    22     1    1
     7     1     2   ar
     8     2     3   ar
     9     3     4   ar
    10     4     5   ar
    11     5     6   ar
    12     5     7    1
    13     7     8    1
    14     8     9    1
    15     9    10    1
    16    10    11    1
    17    12    11    1
    18    12    13    1
    19    13    16    1
    20    16    17    1
    21    17    18    1
    22    18    19    1
    23    19    20    1
    24    20    21    1
    25    13    14    1
    26     6     1   ar
    27    12     7    1
    28    21    16    1
    29    14     4    1
    30    14    15    1
@<TRIPOS>MOLECULE
*****
 27 30 0 0 0
SMALL
GASTEIGER

@<TRIPOS>ATOM
      1 C         139.1458  139.8898  168.1844 C.ar    1  UNL1        0.1384
      2 C         138.0912  138.9391  167.7006 C.ar    1  UNL1        0.0381
      3 C         137.8853  138.7328  166.2292 C.ar    1  UNL1        0.0172
      4 C         138.7341  139.4774  165.2415 C.ar    1  UNL1        0.0430
      5 C         139.7886  140.4281  165.7253 C.ar    1  UNL1        0.0207
      6 C         139.9944  140.6343  167.1968 C.ar    1  UNL1        0.0362
      7 C         140.6373  141.1727  164.7377 C.3     1  UNL1        0.1402
      8 O         141.6918  142.1234  165.2215 O.3     1  UNL1       -0.3518
      9 C         142.5405  142.8679  164.2339 C.3     1  UNL1        0.1425
     10 C         142.3346  142.6617  162.7624 C.3     1  UNL1        0.0322
     11 C         141.2801  141.7110  162.2786 C.3     1  UNL1        0.0070
     12 C         140.4315  140.9665  163.2663 C.3     1  UNL1        0.0494
     13 C         139.3769  140.0157  162.7825 C.3     1  UNL1        0.0717
     14 N         138.5282  139.2712  163.7701 N.pl3   1  UNL1       -0.3341
     15 H         137.8361  138.6472  163.4526 H       1  UNL1        0.1468
     16 C         139.1710  139.8095  161.3110 C.3     1  UNL1        0.0230
     17 C         139.9476  138.7503  160.5863 C.3     1  UNL1        0.0338
     18 C         139.7417  138.5441  159.1149 C.3     1  UNL1        0.1422
     19 O         138.7593  139.3970  158.3682 O.3     1  UNL1       -0.3538
     20 C         137.9829  140.4562  159.0929 C.3     1  UNL1        0.1422
     21 C         138.1887  140.6624  160.5644 C.3     1  UNL1        0.0338
     22 O         139.3516  140.0960  169.6558 O.3     1  UNL1       -0.4755
     23 C         140.7334  140.0322  170.2360 C.3     1  UNL1        0.2054
     24 C         141.3844  141.2771  170.7618 C.3     1  UNL1        0.0473
     25 C         142.9425  142.4784  169.0651 C.3     1  UNL1        0.0001
     26 C         141.6585  142.4273  169.8388 C.3     1  UNL1        0.0037
     27 C         140.6486  143.5262  169.6896 C.3     1  UNL1        0.0001
@<TRIPOS>BOND
     1    25    26    1
     2    26    27    1
     3    26    24    1
     4    24    23    1
     5    23    22    1
     6    22     1    1
     7     1     2   ar
     8     2     3   ar
     9     3     4   ar
    10     4     5   ar
    11     5     6   ar
    12     5     7    1
    13     7     8    1
    14     8     9    1
    15     9    10    1
    16    10    11    1
    17    12    11    1
    18    12    13    1
    19    13    16    1
    20    16    17    1
    21    17    18    1
    22    18    19    1
    23    19    20    1
    24    20    21    1
    25    13    14    1
    26     6     1   ar
    27    12     7    1
    28    21    16    1
    29    14     4    1
    30    14    15    1
