@<TRIPOS>MOLECULE
*****
 32 36 0 0 0
SMALL
GASTEIGER

@<TRIPOS>ATOM
      1 C         142.4884  137.6865  156.4605 C.ar    1  UNL1        0.1564
      2 C         141.4782  137.9645  155.3872 C.ar    1  UNL1        0.0385
      3 C         140.1045  138.4413  155.7554 C.ar    1  UNL1        0.0033
      4 C         139.7409  138.6400  157.1970 C.ar    1  UNL1        0.0048
      5 C         140.7511  138.3619  158.2704 C.ar    1  UNL1        0.0567
      6 C         142.1248  137.8852  157.9022 C.ar    1  UNL1        0.1209
      7 N         143.1350  137.6071  158.9756 N.ar    1  UNL1       -0.2108
      8 C         142.7715  137.8058  160.4172 C.ar    1  UNL1        0.2163
      9 N         143.7817  137.5278  161.4907 N.pl3   1  UNL1       -0.3274
     10 N         141.3978  138.2826  160.7855 N.ar    1  UNL1       -0.1813
     11 N         140.7560  138.5676  162.1110 N.ar    1  UNL1       -0.1451
     12 C         139.3492  139.0218  161.8567 C.ar    1  UNL1        0.1769
     13 N         139.1215  139.0175  160.3741 N.ar    1  UNL1       -0.2086
     14 C         140.3876  138.5607  159.7121 C.ar    1  UNL1        0.1695
     15 H         144.6833  137.2149  161.2491 H       1  UNL1        0.1452
     16 H         143.5430  137.6582  162.4369 H       1  UNL1        0.1452
     17 C         144.0624  135.8068  155.6008 C.3     1  UNL1        0.2525
     18 O         143.8621  137.2097  156.0923 O.3     1  UNL1       -0.4699
     19 C         138.3461  139.4118  162.9017 C.3     1  UNL1        0.1408
     20 N         138.8105  139.8967  164.2430 N.3     1  UNL1       -0.2644
     21 C         139.1158  141.3506  164.4505 C.3     1  UNL1        0.0942
     22 C         139.5801  141.8356  165.7918 C.3     1  UNL1        0.1095
     23 N         139.7392  140.8665  166.9258 N.pl3   1  UNL1       -0.2904
     24 C         139.4339  139.4127  166.7183 C.3     1  UNL1        0.1081
     25 C         138.9696  138.9278  165.3770 C.3     1  UNL1        0.0778
     26 C         138.6643  137.4739  165.1695 C.3     1  UNL1        0.0192
     27 C         140.2036  141.3514  168.2671 C.ar    1  UNL1        0.1318
     28 C         140.5455  142.7986  168.4643 C.ar    1  UNL1        0.0343
     29 C         141.0099  143.2836  169.8056 C.ar    1  UNL1        0.0045
     30 C         141.1323  142.3213  170.9498 C.ar    1  UNL1        0.0208
     31 C         140.7903  140.8742  170.7526 C.ar    1  UNL1        0.1003
     32 N         140.3260  140.3893  169.4113 N.ar    1  UNL1       -0.2292
@<TRIPOS>BOND
     1    17    18    1
     2    18     1    1
     3     1     2   ar
     4     2     3   ar
     5     3     4   ar
     6     4     5   ar
     7     5     6   ar
     8     6     7   ar
     9     7     8   ar
    10     8     9    1
    11     8    10   ar
    12    10    11   ar
    13    11    12   ar
    14    12    19    1
    15    19    20    1
    16    20    21    1
    17    21    22    1
    18    22    23    1
    19    23    27    1
    20    27    28   ar
    21    28    29   ar
    22    29    30   ar
    23    30    31   ar
    24    31    32   ar
    25    23    24    1
    26    24    25    1
    27    25    26    1
    28    12    13   ar
    29    13    14   ar
    30     6     1   ar
    31    14    10   ar
    32    14     5   ar
    33    25    20    1
    34    32    27   ar
    35     9    15    1
    36     9    16    1
@<TRIPOS>MOLECULE
*****
 32 36 0 0 0
SMALL
GASTEIGER

@<TRIPOS>ATOM
      1 C         141.1676  141.5402  169.1198 C.ar    1  UNL1        0.1564
      2 C         142.4512  142.2642  168.8403 C.ar    1  UNL1        0.0385
      3 C         143.1104  142.1317  167.4994 C.ar    1  UNL1        0.0033
      4 C         142.4860  141.2751  166.4381 C.ar    1  UNL1        0.0048
      5 C         141.2024  140.5511  166.7176 C.ar    1  UNL1        0.0567
      6 C         140.5432  140.6836  168.0585 C.ar    1  UNL1        0.1209
      7 N         139.2596  139.9595  168.3380 N.ar    1  UNL1       -0.2108
      8 C         138.6352  139.1030  167.2767 C.ar    1  UNL1        0.2163
      9 N         137.3516  138.3789  167.5562 N.pl3   1  UNL1       -0.3274
     10 N         139.2944  138.9704  165.9358 N.ar    1  UNL1       -0.1813
     11 N         138.9169  138.2036  164.7032 N.ar    1  UNL1       -0.1451
     12 C         139.9671  138.4537  163.6619 C.ar    1  UNL1        0.1769
     13 N         140.9938  139.3752  164.2509 N.ar    1  UNL1       -0.2086
     14 C         140.5780  139.6945  165.6563 C.ar    1  UNL1        0.1695
     15 H         136.9189  138.4659  168.4362 H       1  UNL1        0.1452
     16 H         136.9418  137.8167  166.8596 H       1  UNL1        0.1452
     17 C         139.6784  142.8827  170.7721 C.3     1  UNL1        0.2525
     18 O         140.5084  141.6727  170.4607 O.3     1  UNL1       -0.4699
     19 C         139.9873  137.8827  162.2749 C.3     1  UNL1        0.1408
     20 N         139.3683  138.6449  161.1409 N.3     1  UNL1       -0.2644
     21 C         137.9638  139.1580  161.2605 C.3     1  UNL1        0.0942
     22 C         137.3448  139.9202  160.1265 C.3     1  UNL1        0.1095
     23 N         138.1302  140.1693  158.8731 N.pl3   1  UNL1       -0.2904
     24 C         139.5346  139.6562  158.7536 C.3     1  UNL1        0.1081
     25 C         140.1536  138.8940  159.8875 C.3     1  UNL1        0.0778
     26 C         141.5580  138.3808  159.7681 C.3     1  UNL1        0.0192
     27 C         137.5112  140.9315  157.7391 C.ar    1  UNL1        0.1318
     28 C         137.9927  142.3144  157.4137 C.ar    1  UNL1        0.0343
     29 C         137.3737  143.0767  156.2798 C.ar    1  UNL1        0.0045
     30 C         136.2732  142.4560  155.4712 C.ar    1  UNL1        0.0208
     31 C         135.7917  141.0732  155.7966 C.ar    1  UNL1        0.1003
     32 N         136.4107  140.3109  156.9306 N.ar    1  UNL1       -0.2292
@<TRIPOS>BOND
     1    17    18    1
     2    18     1    1
     3     1     2   ar
     4     2     3   ar
     5     3     4   ar
     6     4     5   ar
     7     5     6   ar
     8     6     7   ar
     9     7     8   ar
    10     8     9    1
    11     8    10   ar
    12    10    11   ar
    13    11    12   ar
    14    12    19    1
    15    19    20    1
    16    20    21    1
    17    21    22    1
    18    22    23    1
    19    23    27    1
    20    27    28   ar
    21    28    29   ar
    22    29    30   ar
    23    30    31   ar
    24    31    32   ar
    25    23    24    1
    26    24    25    1
    27    25    26    1
    28    12    13   ar
    29    13    14   ar
    30     6     1   ar
    31    14    10   ar
    32    14     5   ar
    33    25    20    1
    34    32    27   ar
    35     9    15    1
    36     9    16    1
@<TRIPOS>MOLECULE
*****
 32 36 0 0 0
SMALL
GASTEIGER

@<TRIPOS>ATOM
      1 C         137.3043  141.0095  156.0831 C.ar    1  UNL1        0.1564
      2 C         137.6896  142.0380  155.0615 C.ar    1  UNL1        0.0385
      3 C         138.4281  143.2737  155.4829 C.ar    1  UNL1        0.0033
      4 C         138.7812  143.4810  156.9259 C.ar    1  UNL1        0.0048
      5 C         138.3958  142.4524  157.9475 C.ar    1  UNL1        0.0567
      6 C         137.6574  141.2167  157.5261 C.ar    1  UNL1        0.1209
      7 N         137.2720  140.1882  158.5477 N.ar    1  UNL1       -0.2108
      8 C         137.6252  140.3954  159.9907 C.ar    1  UNL1        0.2163
      9 N         137.2398  139.3669  161.0124 N.pl3   1  UNL1       -0.3274
     10 N         138.3636  141.6311  160.4122 N.ar    1  UNL1       -0.1813
     11 N         138.8439  142.1056  161.7516 N.ar    1  UNL1       -0.1451
     12 C         139.5261  143.4274  161.5579 C.ar    1  UNL1        0.1769
     13 N         139.4674  143.7698  160.0986 N.ar    1  UNL1       -0.2086
     14 C         138.7490  142.6596  159.3906 C.ar    1  UNL1        0.1695
     15 H         136.7551  138.5558  160.7358 H       1  UNL1        0.1452
     16 H         137.4716  139.5029  161.9595 H       1  UNL1        0.1452
     17 C         135.4130  139.8776  154.7075 C.3     1  UNL1        0.2525
     18 O         136.5658  139.7737  155.6616 O.3     1  UNL1       -0.4699
     19 C         140.1564  144.2605  162.6343 C.3     1  UNL1        0.1408
     20 N         140.6077  143.6180  163.9124 N.3     1  UNL1       -0.2644
     21 C         141.8898  142.8402  163.9488 C.3     1  UNL1        0.0942
     22 C         142.3411  142.1977  165.2269 C.3     1  UNL1        0.1095
     23 N         141.5104  142.3331  166.4686 N.pl3   1  UNL1       -0.2904
     24 C         140.2284  143.1109  166.4321 C.3     1  UNL1        0.1081
     25 C         139.7771  143.7534  165.1540 C.3     1  UNL1        0.0778
     26 C         138.4951  144.5312  165.1175 C.3     1  UNL1        0.0192
     27 C         141.9617  141.6906  167.7467 C.ar    1  UNL1        0.1318
     28 C         143.0541  142.3216  168.5583 C.ar    1  UNL1        0.0343
     29 C         143.5054  141.6791  169.8364 C.ar    1  UNL1        0.0045
     30 C         142.8644  140.4056  170.3028 C.ar    1  UNL1        0.0208
     31 C         141.7722  139.7747  169.4912 C.ar    1  UNL1        0.1003
     32 N         141.3208  140.4172  168.2131 N.ar    1  UNL1       -0.2292
@<TRIPOS>BOND
     1    17    18    1
     2    18     1    1
     3     1     2   ar
     4     2     3   ar
     5     3     4   ar
     6     4     5   ar
     7     5     6   ar
     8     6     7   ar
     9     7     8   ar
    10     8     9    1
    11     8    10   ar
    12    10    11   ar
    13    11    12   ar
    14    12    19    1
    15    19    20    1
    16    20    21    1
    17    21    22    1
    18    22    23    1
    19    23    27    1
    20    27    28   ar
    21    28    29   ar
    22    29    30   ar
    23    30    31   ar
    24    31    32   ar
    25    23    24    1
    26    24    25    1
    27    25    26    1
    28    12    13   ar
    29    13    14   ar
    30     6     1   ar
    31    14    10   ar
    32    14     5   ar
    33    25    20    1
    34    32    27   ar
    35     9    15    1
    36     9    16    1
@<TRIPOS>MOLECULE
*****
 32 36 0 0 0
SMALL
GASTEIGER

@<TRIPOS>ATOM
      1 C         143.9344  131.4695  155.3379 C.ar    1  UNL1        0.1564
      2 C         144.8371  131.0595  156.4634 C.ar    1  UNL1        0.0385
      3 C         145.0797  131.9963  157.6096 C.ar    1  UNL1        0.0033
      4 C         144.4195  133.3430  157.6301 C.ar    1  UNL1        0.0048
      5 C         143.5168  133.7529  156.5046 C.ar    1  UNL1        0.0567
      6 C         143.2742  132.8162  155.3584 C.ar    1  UNL1        0.1209
      7 N         142.3714  133.2262  154.2328 N.ar    1  UNL1       -0.2108
      8 C         141.7112  134.5729  154.2534 C.ar    1  UNL1        0.2163
      9 N         140.8084  134.9829  153.1278 N.pl3   1  UNL1       -0.3274
     10 N         141.9538  135.5097  155.3995 N.ar    1  UNL1       -0.1813
     11 N         141.4455  136.8902  155.6923 N.ar    1  UNL1       -0.1451
     12 C         142.0341  137.3335  156.9989 C.ar    1  UNL1        0.1769
     13 N         142.9062  136.2268  157.5135 N.ar    1  UNL1       -0.2086
     14 C         142.8566  135.0997  156.5251 C.ar    1  UNL1        0.1695
     15 H         140.6492  134.3681  152.3755 H       1  UNL1        0.1452
     16 H         140.3751  135.8668  153.1413 H       1  UNL1        0.1452
     17 C         144.7310  129.5166  153.8207 C.3     1  UNL1        0.2525
     18 O         143.6918  130.5327  154.1917 O.3     1  UNL1       -0.4699
     19 C         141.7930  138.6519  157.6725 C.3     1  UNL1        0.1408
     20 N         141.1950  138.6933  159.0475 N.3     1  UNL1       -0.2644
     21 C         139.7118  138.5553  159.2247 C.3     1  UNL1        0.0942
     22 C         139.1137  138.5967  160.5997 C.3     1  UNL1        0.1095
     23 N         139.9988  138.7760  161.7975 N.pl3   1  UNL1       -0.2904
     24 C         141.4819  138.9140  161.6202 C.3     1  UNL1        0.1081
     25 C         142.0799  138.8726  160.2452 C.3     1  UNL1        0.0778
     26 C         143.5630  139.0106  160.0679 C.3     1  UNL1        0.0192
     27 C         139.4007  138.8174  163.1724 C.ar    1  UNL1        0.1318
     28 C         139.3482  137.5709  164.0053 C.ar    1  UNL1        0.0343
     29 C         138.7501  137.6123  165.3803 C.ar    1  UNL1        0.0045
     30 C         138.2046  138.9002  165.9224 C.ar    1  UNL1        0.0208
     31 C         138.2571  140.1466  165.0896 C.ar    1  UNL1        0.1003
     32 N         138.8552  140.1052  163.7146 N.ar    1  UNL1       -0.2292
@<TRIPOS>BOND
     1    17    18    1
     2    18     1    1
     3     1     2   ar
     4     2     3   ar
     5     3     4   ar
     6     4     5   ar
     7     5     6   ar
     8     6     7   ar
     9     7     8   ar
    10     8     9    1
    11     8    10   ar
    12    10    11   ar
    13    11    12   ar
    14    12    19    1
    15    19    20    1
    16    20    21    1
    17    21    22    1
    18    22    23    1
    19    23    27    1
    20    27    28   ar
    21    28    29   ar
    22    29    30   ar
    23    30    31   ar
    24    31    32   ar
    25    23    24    1
    26    24    25    1
    27    25    26    1
    28    12    13   ar
    29    13    14   ar
    30     6     1   ar
    31    14    10   ar
    32    14     5   ar
    33    25    20    1
    34    32    27   ar
    35     9    15    1
    36     9    16    1
@<TRIPOS>MOLECULE
*****
 32 36 0 0 0
SMALL
GASTEIGER

@<TRIPOS>ATOM
      1 C         142.9156  131.9394  153.6158 C.ar    1  UNL1        0.1564
      2 C         142.1385  132.2880  152.3812 C.ar    1  UNL1        0.0385
      3 C         141.4721  133.6270  152.2675 C.ar    1  UNL1        0.0033
      4 C         141.5828  134.6174  153.3886 C.ar    1  UNL1        0.0048
      5 C         142.3599  134.2688  154.6233 C.ar    1  UNL1        0.0567
      6 C         143.0263  132.9298  154.7369 C.ar    1  UNL1        0.1209
      7 N         143.8035  132.5811  155.9717 N.ar    1  UNL1       -0.2108
      8 C         143.9142  133.5715  157.0927 C.ar    1  UNL1        0.2163
      9 N         144.6913  133.2229  158.3275 N.pl3   1  UNL1       -0.3274
     10 N         143.2477  134.9106  156.9791 N.ar    1  UNL1       -0.1813
     11 N         143.1827  136.0819  157.9139 N.ar    1  UNL1       -0.1451
     12 C         142.3655  137.1544  157.2568 C.ar    1  UNL1        0.1769
     13 N         141.9253  136.6460  155.9160 N.ar    1  UNL1       -0.2086
     14 C         142.4706  135.2592  155.7444 C.ar    1  UNL1        0.1695
     15 H         145.1287  132.3441  158.4021 H       1  UNL1        0.1452
     16 H         144.7639  133.8730  159.0633 H       1  UNL1        0.1452
     17 C         144.1744  129.9518  152.5136 C.3     1  UNL1        0.2525
     18 O         143.5820  130.6003  153.7295 O.3     1  UNL1       -0.4699
     19 C         142.0446  138.4994  157.8385 C.3     1  UNL1        0.1408
     20 N         141.3979  138.5978  159.1883 N.3     1  UNL1       -0.2644
     21 C         139.9086  138.4738  159.3173 C.3     1  UNL1        0.0942
     22 C         139.2619  138.5722  160.6671 C.3     1  UNL1        0.1095
     23 N         140.1045  138.7946  161.8880 N.pl3   1  UNL1       -0.2904
     24 C         141.5938  138.9186  161.7591 C.3     1  UNL1        0.1081
     25 C         142.2405  138.8202  160.4092 C.3     1  UNL1        0.0778
     26 C         143.7297  138.9442  160.2803 C.3     1  UNL1        0.0192
     27 C         139.4578  138.8930  163.2379 C.ar    1  UNL1        0.1318
     28 C         139.3324  137.6720  164.1002 C.ar    1  UNL1        0.0343
     29 C         138.6857  137.7704  165.4501 C.ar    1  UNL1        0.0045
     30 C         138.1644  139.0898  165.9376 C.ar    1  UNL1        0.0208
     31 C         138.2898  140.3107  165.0753 C.ar    1  UNL1        0.1003
     32 N         138.9365  140.2123  163.7254 N.ar    1  UNL1       -0.2292
@<TRIPOS>BOND
     1    17    18    1
     2    18     1    1
     3     1     2   ar
     4     2     3   ar
     5     3     4   ar
     6     4     5   ar
     7     5     6   ar
     8     6     7   ar
     9     7     8   ar
    10     8     9    1
    11     8    10   ar
    12    10    11   ar
    13    11    12   ar
    14    12    19    1
    15    19    20    1
    16    20    21    1
    17    21    22    1
    18    22    23    1
    19    23    27    1
    20    27    28   ar
    21    28    29   ar
    22    29    30   ar
    23    30    31   ar
    24    31    32   ar
    25    23    24    1
    26    24    25    1
    27    25    26    1
    28    12    13   ar
    29    13    14   ar
    30     6     1   ar
    31    14    10   ar
    32    14     5   ar
    33    25    20    1
    34    32    27   ar
    35     9    15    1
    36     9    16    1
@<TRIPOS>MOLECULE
*****
 32 36 0 0 0
SMALL
GASTEIGER

@<TRIPOS>ATOM
      1 C         140.4804  146.0195  156.7155 C.ar    1  UNL1        0.1564
      2 C         141.3193  145.5449  155.5662 C.ar    1  UNL1        0.0385
      3 C         142.4256  144.5597  155.8018 C.ar    1  UNL1        0.0033
      4 C         142.6931  144.0493  157.1866 C.ar    1  UNL1        0.0048
      5 C         141.8542  144.5239  158.3359 C.ar    1  UNL1        0.0567
      6 C         140.7478  145.5091  158.1003 C.ar    1  UNL1        0.1209
      7 N         139.9089  145.9838  159.2497 N.ar    1  UNL1       -0.2108
      8 C         140.1764  145.4733  160.6345 C.ar    1  UNL1        0.2163
      9 N         139.3374  145.9480  161.7839 N.pl3   1  UNL1       -0.3274
     10 N         141.2827  144.4882  160.8701 N.ar    1  UNL1       -0.1813
     11 N         141.7778  143.8136  162.1151 N.ar    1  UNL1       -0.1451
     12 C         142.9227  142.9221  161.7352 C.ar    1  UNL1        0.1769
     13 N         143.1352  143.0456  160.2554 N.ar    1  UNL1       -0.2086
     14 C         142.1216  144.0135  159.7209 C.ar    1  UNL1        0.1695
     15 H         138.6113  146.5946  161.6293 H       1  UNL1        0.1452
     16 H         139.5130  145.6130  162.6928 H       1  UNL1        0.1452
     17 C         138.7088  147.0786  155.1375 C.3     1  UNL1        0.2525
     18 O         139.3741  147.0047  156.4799 O.3     1  UNL1       -0.4699
     19 C         143.7159  142.0586  162.6708 C.3     1  UNL1        0.1408
     20 N         143.1550  141.6957  164.0138 N.3     1  UNL1       -0.2644
     21 C         142.2137  140.5352  164.1448 C.3     1  UNL1        0.0942
     22 C         141.6528  140.1723  165.4878 C.3     1  UNL1        0.1095
     23 N         142.0333  140.9700  166.6999 N.pl3   1  UNL1       -0.2904
     24 C         142.9746  142.1305  166.5689 C.3     1  UNL1        0.1081
     25 C         143.5355  142.4933  165.2258 C.3     1  UNL1        0.0778
     26 C         144.4768  143.6538  165.0948 C.3     1  UNL1        0.0192
     27 C         141.4725  140.6072  168.0429 C.ar    1  UNL1        0.1318
     28 C         142.2913  139.7966  169.0036 C.ar    1  UNL1        0.0343
     29 C         141.7304  139.4338  170.3466 C.ar    1  UNL1        0.0045
     30 C         140.3508  139.8815  170.7290 C.ar    1  UNL1        0.0208
     31 C         139.5320  140.6919  169.7685 C.ar    1  UNL1        0.1003
     32 N         140.0929  141.0548  168.4254 N.ar    1  UNL1       -0.2292
@<TRIPOS>BOND
     1    17    18    1
     2    18     1    1
     3     1     2   ar
     4     2     3   ar
     5     3     4   ar
     6     4     5   ar
     7     5     6   ar
     8     6     7   ar
     9     7     8   ar
    10     8     9    1
    11     8    10   ar
    12    10    11   ar
    13    11    12   ar
    14    12    19    1
    15    19    20    1
    16    20    21    1
    17    21    22    1
    18    22    23    1
    19    23    27    1
    20    27    28   ar
    21    28    29   ar
    22    29    30   ar
    23    30    31   ar
    24    31    32   ar
    25    23    24    1
    26    24    25    1
    27    25    26    1
    28    12    13   ar
    29    13    14   ar
    30     6     1   ar
    31    14    10   ar
    32    14     5   ar
    33    25    20    1
    34    32    27   ar
    35     9    15    1
    36     9    16    1
@<TRIPOS>MOLECULE
*****
 32 36 0 0 0
SMALL
GASTEIGER

@<TRIPOS>ATOM
      1 C         140.6649  141.1094  169.3756 C.ar    1  UNL1        0.1564
      2 C         141.2736  139.9940  170.1727 C.ar    1  UNL1        0.0385
      3 C         142.3399  139.1323  169.5641 C.ar    1  UNL1        0.0033
      4 C         142.7976  139.3860  168.1583 C.ar    1  UNL1        0.0048
      5 C         142.1889  140.5013  167.3612 C.ar    1  UNL1        0.0567
      6 C         141.1226  141.3630  167.9698 C.ar    1  UNL1        0.1209
      7 N         140.5140  142.4785  167.1726 N.ar    1  UNL1       -0.2108
      8 C         140.9717  142.7322  165.7669 C.ar    1  UNL1        0.2163
      9 N         140.3630  143.8476  164.9697 N.pl3   1  UNL1       -0.3274
     10 N         142.0380  141.8704  165.1583 N.ar    1  UNL1       -0.1813
     11 N         142.6867  141.8813  163.8059 N.ar    1  UNL1       -0.1451
     12 C         143.6963  140.7726  163.7672 C.ar    1  UNL1        0.1769
     13 N         143.6715  140.0765  165.0957 N.ar    1  UNL1       -0.2086
     14 C         142.6466  140.7551  165.9554 C.ar    1  UNL1        0.1695
     15 H         139.6632  144.4132  165.3692 H       1  UNL1        0.1452
     16 H         140.6634  144.0141  164.0471 H       1  UNL1        0.1452
     17 C         139.9710  143.2488  170.6761 C.3     1  UNL1        0.2525
     18 O         139.5986  141.9711  169.9842 O.3     1  UNL1       -0.4699
     19 C         144.5763  140.4215  162.6042 C.3     1  UNL1        0.1408
     20 N         144.0055  139.6890  161.4262 N.3     1  UNL1       -0.2644
     21 C         143.7151  138.2206  161.5249 C.3     1  UNL1        0.0942
     22 C         143.1444  137.4882  160.3469 C.3     1  UNL1        0.1095
     23 N         142.8640  138.2240  159.0701 N.pl3   1  UNL1       -0.2904
     24 C         143.1544  139.6923  158.9715 C.3     1  UNL1        0.1081
     25 C         143.7251  140.4248  160.1495 C.3     1  UNL1        0.0778
     26 C         144.0155  141.8931  160.0509 C.3     1  UNL1        0.0192
     27 C         142.2933  137.4916  157.8921 C.ar    1  UNL1        0.1318
     28 C         141.0386  137.9877  157.2365 C.ar    1  UNL1        0.0343
     29 C         140.4679  137.2552  156.0585 C.ar    1  UNL1        0.0045
     30 C         141.1518  136.0266  155.5361 C.ar    1  UNL1        0.0208
     31 C         142.4064  135.5305  156.1917 C.ar    1  UNL1        0.1003
     32 N         142.9771  136.2630  157.3697 N.ar    1  UNL1       -0.2292
@<TRIPOS>BOND
     1    17    18    1
     2    18     1    1
     3     1     2   ar
     4     2     3   ar
     5     3     4   ar
     6     4     5   ar
     7     5     6   ar
     8     6     7   ar
     9     7     8   ar
    10     8     9    1
    11     8    10   ar
    12    10    11   ar
    13    11    12   ar
    14    12    19    1
    15    19    20    1
    16    20    21    1
    17    21    22    1
    18    22    23    1
    19    23    27    1
    20    27    28   ar
    21    28    29   ar
    22    29    30   ar
    23    30    31   ar
    24    31    32   ar
    25    23    24    1
    26    24    25    1
    27    25    26    1
    28    12    13   ar
    29    13    14   ar
    30     6     1   ar
    31    14    10   ar
    32    14     5   ar
    33    25    20    1
    34    32    27   ar
    35     9    15    1
    36     9    16    1
@<TRIPOS>MOLECULE
*****
 32 36 0 0 0
SMALL
GASTEIGER

@<TRIPOS>ATOM
      1 C         140.9463  142.2647  169.4366 C.ar    1  UNL1        0.1564
      2 C         139.7945  141.7045  170.2173 C.ar    1  UNL1        0.0385
      3 C         139.0472  140.5114  169.6996 C.ar    1  UNL1        0.0033
      4 C         139.4518  139.8784  168.4013 C.ar    1  UNL1        0.0048
      5 C         140.6036  140.4387  167.6206 C.ar    1  UNL1        0.0567
      6 C         141.3508  141.6318  168.1383 C.ar    1  UNL1        0.1209
      7 N         142.5027  142.1920  167.3576 N.ar    1  UNL1       -0.2108
      8 C         142.9072  141.5591  166.0592 C.ar    1  UNL1        0.2163
      9 N         144.0591  142.1193  165.2785 N.pl3   1  UNL1       -0.3274
     10 N         142.1600  140.3659  165.5416 N.ar    1  UNL1       -0.1813
     11 N         142.3277  139.5364  164.3032 N.ar    1  UNL1       -0.1451
     12 C         141.2796  138.4634  164.3185 C.ar    1  UNL1        0.1769
     13 N         140.4640  138.6299  165.5664 N.ar    1  UNL1       -0.2086
     14 C         141.0082  139.8057  166.3222 C.ar    1  UNL1        0.1695
     15 H         144.5495  142.9024  165.6182 H       1  UNL1        0.1452
     16 H         144.3246  141.7039  164.4263 H       1  UNL1        0.1452
     17 C         142.9825  143.2708  170.6982 C.3     1  UNL1        0.2525
     18 O         141.6935  143.4579  169.9543 O.3     1  UNL1       -0.4699
     19 C         141.0817  137.4091  163.2700 C.3     1  UNL1        0.1408
     20 N         140.8929  137.8042  161.8353 N.3     1  UNL1       -0.2644
     21 C         142.0797  137.9103  160.9241 C.3     1  UNL1        0.0942
     22 C         141.8909  138.3055  159.4895 C.3     1  UNL1        0.1095
     23 N         140.5152  138.5945  158.9660 N.pl3   1  UNL1       -0.2904
     24 C         139.3284  138.4884  159.8772 C.3     1  UNL1        0.1081
     25 C         139.5172  138.0932  161.3118 C.3     1  UNL1        0.0778
     26 C         138.3305  137.9871  162.2230 C.3     1  UNL1        0.0192
     27 C         140.3263  138.9896  157.5314 C.ar    1  UNL1        0.1318
     28 C         141.5200  139.1912  156.6456 C.ar    1  UNL1        0.0343
     29 C         141.3312  139.5864  155.2110 C.ar    1  UNL1        0.0045
     30 C         139.9486  139.7799  154.6621 C.ar    1  UNL1        0.0208
     31 C         138.7550  139.5782  155.5478 C.ar    1  UNL1        0.1003
     32 N         138.9439  139.1831  156.9825 N.ar    1  UNL1       -0.2292
@<TRIPOS>BOND
     1    17    18    1
     2    18     1    1
     3     1     2   ar
     4     2     3   ar
     5     3     4   ar
     6     4     5   ar
     7     5     6   ar
     8     6     7   ar
     9     7     8   ar
    10     8     9    1
    11     8    10   ar
    12    10    11   ar
    13    11    12   ar
    14    12    19    1
    15    19    20    1
    16    20    21    1
    17    21    22    1
    18    22    23    1
    19    23    27    1
    20    27    28   ar
    21    28    29   ar
    22    29    30   ar
    23    30    31   ar
    24    31    32   ar
    25    23    24    1
    26    24    25    1
    27    25    26    1
    28    12    13   ar
    29    13    14   ar
    30     6     1   ar
    31    14    10   ar
    32    14     5   ar
    33    25    20    1
    34    32    27   ar
    35     9    15    1
    36     9    16    1
@<TRIPOS>MOLECULE
*****
 32 36 0 0 0
SMALL
GASTEIGER

@<TRIPOS>ATOM
      1 C         140.7966  143.7546  156.2559 C.ar    1  UNL1        0.1564
      2 C         141.2875  145.1676  156.3676 C.ar    1  UNL1        0.0385
      3 C         141.0757  145.9369  157.6377 C.ar    1  UNL1        0.0033
      4 C         140.3730  145.2933  158.7961 C.ar    1  UNL1        0.0048
      5 C         139.8821  143.8804  158.6844 C.ar    1  UNL1        0.0567
      6 C         140.0939  143.1110  157.4143 C.ar    1  UNL1        0.1209
      7 N         139.6030  141.6980  157.3026 N.ar    1  UNL1       -0.2108
      8 C         138.9003  141.0544  158.4611 C.ar    1  UNL1        0.2163
      9 N         138.4094  139.6413  158.3494 N.pl3   1  UNL1       -0.3274
     10 N         138.6885  141.8238  159.7312 N.ar    1  UNL1       -0.1813
     11 N         138.0347  141.4562  161.0302 N.ar    1  UNL1       -0.1451
     12 C         138.1215  142.6420  161.9446 C.ar    1  UNL1        0.1769
     13 N         138.8290  143.7425  161.2108 N.ar    1  UNL1       -0.2086
     14 C         139.1794  143.2367  159.8429 C.ar    1  UNL1        0.1695
     15 H         138.5484  139.1363  157.5158 H       1  UNL1        0.1452
     16 H         137.9482  139.2189  159.1097 H       1  UNL1        0.1452
     17 C         140.6290  143.5936  153.6682 C.3     1  UNL1        0.2525
     18 O         141.0084  142.9852  154.9857 O.3     1  UNL1       -0.4699
     19 C         137.5935  142.7146  163.3468 C.3     1  UNL1        0.1408
     20 N         138.4775  142.3458  164.5011 N.3     1  UNL1       -0.2644
     21 C         138.5335  140.9250  164.9789 C.3     1  UNL1        0.0942
     22 C         139.4175  140.5562  166.1333 C.3     1  UNL1        0.1095
     23 N         140.2456  141.6082  166.8098 N.pl3   1  UNL1       -0.2904
     24 C         140.1897  143.0289  166.3320 C.3     1  UNL1        0.1081
     25 C         139.3056  143.3977  165.1776 C.3     1  UNL1        0.0778
     26 C         139.2497  144.8185  164.6998 C.3     1  UNL1        0.0192
     27 C         141.1297  141.2394  167.9641 C.ar    1  UNL1        0.1318
     28 C         142.3082  142.1001  168.3111 C.ar    1  UNL1        0.0343
     29 C         143.1922  141.7313  169.4654 C.ar    1  UNL1        0.0045
     30 C         142.8977  140.5017  170.2727 C.ar    1  UNL1        0.0208
     31 C         141.7193  139.6411  169.9257 C.ar    1  UNL1        0.1003
     32 N         140.8352  140.0099  168.7714 N.ar    1  UNL1       -0.2292
@<TRIPOS>BOND
     1    17    18    1
     2    18     1    1
     3     1     2   ar
     4     2     3   ar
     5     3     4   ar
     6     4     5   ar
     7     5     6   ar
     8     6     7   ar
     9     7     8   ar
    10     8     9    1
    11     8    10   ar
    12    10    11   ar
    13    11    12   ar
    14    12    19    1
    15    19    20    1
    16    20    21    1
    17    21    22    1
    18    22    23    1
    19    23    27    1
    20    27    28   ar
    21    28    29   ar
    22    29    30   ar
    23    30    31   ar
    24    31    32   ar
    25    23    24    1
    26    24    25    1
    27    25    26    1
    28    12    13   ar
    29    13    14   ar
    30     6     1   ar
    31    14    10   ar
    32    14     5   ar
    33    25    20    1
    34    32    27   ar
    35     9    15    1
    36     9    16    1
