@<TRIPOS>MOLECULE
*****
 27 30 0 0 0
SMALL
GASTEIGER

@<TRIPOS>ATOM
      1 C         137.3376  138.0825  167.2787 C.3     1  UNL1        0.0420
      2 C         138.2938  139.1343  166.7995 C.3     1  UNL1        0.1912
      3 O         138.3748  139.4649  165.3387 O.3     1  UNL1       -0.3500
      4 C         139.3310  140.5167  164.8596 C.3     1  UNL1        0.1145
      5 C         140.2872  141.5684  164.3806 C.3     1  UNL1        0.0463
      6 C         140.3682  141.8990  162.9197 C.3     1  UNL1        0.0746
      7 N         139.4930  141.1779  161.9379 N.3     1  UNL1       -0.2722
      8 C         138.5368  140.1262  162.4170 C.3     1  UNL1        0.0746
      9 C         138.4558  139.7956  163.8778 C.3     1  UNL1        0.0463
     10 C         140.2063  141.2378  165.8414 C.3     1  UNL1        0.1254
     11 N         140.1253  140.9072  167.3023 N.am    1  UNL1       -0.2543
     12 C         139.1691  139.8554  167.7814 C.2     1  UNL1        0.2566
     13 O         139.0881  139.5248  169.2423 O.2     1  UNL1       -0.2719
     14 C         141.0005  141.6283  168.2841 C.ar    1  UNL1        0.0540
     15 C         142.4065  141.1618  168.5192 C.ar    1  UNL1        0.0149
     16 C         143.2818  141.8829  169.5010 C.ar    1  UNL1        0.0013
     17 C         142.7510  143.0705  170.2477 C.ar    1  UNL1        0.0001
     18 C         141.3448  143.5372  170.0127 C.ar    1  UNL1        0.0013
     19 C         140.4696  142.8160  169.0309 C.ar    1  UNL1        0.0149
     20 C         139.5740  141.5085  160.4770 C.3     1  UNL1        0.0784
     21 C         140.5677  140.8032  159.6024 C.3     1  UNL1        0.0631
     22 C         141.6696  139.9945  160.2203 C.ar    1  UNL1        0.0604
     23 C         141.4747  138.5283  160.4698 C.ar    1  UNL1        0.0148
     24 C         142.5766  137.7197  161.0876 C.ar    1  UNL1        0.0028
     25 C         143.8735  138.3772  161.4560 C.ar    1  UNL1        0.0207
     26 C         144.0685  139.8434  161.2064 C.ar    1  UNL1        0.0984
     27 N         142.9666  140.6520  160.5886 N.ar    1  UNL1       -0.2481
@<TRIPOS>BOND
     1     1     2    1
     2     2     3    1
     3     3     4    1
     4     4     5    1
     5     5     6    1
     6     6     7    1
     7     7    20    1
     8    20    21    1
     9    21    22    1
    10    22    23   ar
    11    23    24   ar
    12    24    25   ar
    13    25    26   ar
    14    26    27   ar
    15     7     8    1
    16     8     9    1
    17     4    10    1
    18    10    11    1
    19    11    14    1
    20    14    15   ar
    21    15    16   ar
    22    16    17   ar
    23    17    18   ar
    24    18    19   ar
    25    11    12   am
    26    12    13    2
    27    12     2    1
    28     9     4    1
    29    19    14   ar
    30    27    22   ar
@<TRIPOS>MOLECULE
*****
 27 30 0 0 0
SMALL
GASTEIGER

@<TRIPOS>ATOM
      1 C         137.2830  138.1389  167.2181 C.3     1  UNL1        0.0420
      2 C         138.6214  138.7149  166.8616 C.3     1  UNL1        0.1912
      3 O         139.2607  138.3703  165.5492 O.3     1  UNL1       -0.3500
      4 C         140.5991  138.9463  165.1926 C.3     1  UNL1        0.1145
      5 C         141.9374  139.5222  164.8362 C.3     1  UNL1        0.0463
      6 C         142.5767  139.1777  163.5237 C.3     1  UNL1        0.0746
      7 N         141.8776  138.2571  162.5678 N.3     1  UNL1       -0.2722
      8 C         140.5393  137.6811  162.9242 C.3     1  UNL1        0.0746
      9 C         139.9000  138.0257  164.2367 C.3     1  UNL1        0.0463
     10 C         141.2981  139.8668  166.1486 C.3     1  UNL1        0.1254
     11 N         140.6588  140.2114  167.4611 N.am    1  UNL1       -0.2543
     12 C         139.3205  139.6355  167.8176 C.2     1  UNL1        0.2566
     13 O         138.6811  139.9800  169.1301 O.2     1  UNL1       -0.2719
     14 C         141.3578  141.1320  168.4171 C.ar    1  UNL1        0.0540
     15 C         140.6945  142.4045  168.8536 C.ar    1  UNL1        0.0149
     16 C         141.3936  143.3251  169.8096 C.ar    1  UNL1        0.0013
     17 C         142.7559  142.9731  170.3291 C.ar    1  UNL1        0.0001
     18 C         143.4194  141.7005  169.8926 C.ar    1  UNL1        0.0013
     19 C         142.7203  140.7799  168.9366 C.ar    1  UNL1        0.0149
     20 C         142.5170  137.9125  161.2553 C.3     1  UNL1        0.0784
     21 C         143.8655  138.4702  160.9086 C.3     1  UNL1        0.0631
     22 C         143.9717  139.7115  160.0730 C.ar    1  UNL1        0.0604
     23 C         143.9879  141.0594  160.7309 C.ar    1  UNL1        0.0148
     24 C         144.0940  142.3005  159.8954 C.ar    1  UNL1        0.0028
     25 C         144.1839  142.1938  158.4019 C.ar    1  UNL1        0.0207
     26 C         144.1676  140.8459  157.7439 C.ar    1  UNL1        0.0984
     27 N         144.0615  139.6048  158.5795 N.ar    1  UNL1       -0.2481
@<TRIPOS>BOND
     1     1     2    1
     2     2     3    1
     3     3     4    1
     4     4     5    1
     5     5     6    1
     6     6     7    1
     7     7    20    1
     8    20    21    1
     9    21    22    1
    10    22    23   ar
    11    23    24   ar
    12    24    25   ar
    13    25    26   ar
    14    26    27   ar
    15     7     8    1
    16     8     9    1
    17     4    10    1
    18    10    11    1
    19    11    14    1
    20    14    15   ar
    21    15    16   ar
    22    16    17   ar
    23    17    18   ar
    24    18    19   ar
    25    11    12   am
    26    12    13    2
    27    12     2    1
    28     9     4    1
    29    19    14   ar
    30    27    22   ar
@<TRIPOS>MOLECULE
*****
 27 30 0 0 0
SMALL
GASTEIGER

@<TRIPOS>ATOM
      1 C         137.5113  138.1575  166.9855 C.3     1  UNL1        0.0420
      2 C         138.3227  139.3590  166.6007 C.3     1  UNL1        0.1912
      3 O         138.2360  139.9076  165.2073 O.3     1  UNL1       -0.3500
      4 C         139.0474  141.1091  164.8225 C.3     1  UNL1        0.1145
      5 C         139.8588  142.3105  164.4377 C.3     1  UNL1        0.0463
      6 C         139.7721  142.8592  163.0444 C.3     1  UNL1        0.0746
      7 N         138.8740  142.2064  162.0358 N.3     1  UNL1       -0.2722
      8 C         138.0625  141.0049  162.4206 C.3     1  UNL1        0.0746
      9 C         138.1493  140.4563  163.8139 C.3     1  UNL1        0.0463
     10 C         139.9456  141.7619  165.8310 C.3     1  UNL1        0.1254
     11 N         140.0323  141.2132  167.2244 N.am    1  UNL1       -0.2543
     12 C         139.2209  140.0118  167.6092 C.2     1  UNL1        0.2566
     13 O         139.3076  139.4631  169.0026 O.2     1  UNL1       -0.2719
     14 C         140.9304  141.8660  168.2330 C.ar    1  UNL1        0.0540
     15 C         140.3931  142.9400  169.1318 C.ar    1  UNL1        0.0149
     16 C         141.2913  143.5928  170.1403 C.ar    1  UNL1        0.0013
     17 C         142.7267  143.1716  170.2501 C.ar    1  UNL1        0.0001
     18 C         143.2641  142.0976  169.3513 C.ar    1  UNL1        0.0013
     19 C         142.3659  141.4448  168.3427 C.ar    1  UNL1        0.0149
     20 C         138.7872  142.7551  160.6424 C.3     1  UNL1        0.0784
     21 C         139.9535  143.4908  160.0521 C.3     1  UNL1        0.0631
     22 C         139.8276  144.1390  158.7052 C.ar    1  UNL1        0.0604
     23 C         139.2543  143.3687  157.5529 C.ar    1  UNL1        0.0148
     24 C         139.1283  144.0169  156.2061 C.ar    1  UNL1        0.0028
     25 C         139.5758  145.4353  156.0116 C.ar    1  UNL1        0.0207
     26 C         140.1491  146.2056  157.1640 C.ar    1  UNL1        0.0984
     27 N         140.2751  145.5574  158.5108 N.ar    1  UNL1       -0.2481
@<TRIPOS>BOND
     1     1     2    1
     2     2     3    1
     3     3     4    1
     4     4     5    1
     5     5     6    1
     6     6     7    1
     7     7    20    1
     8    20    21    1
     9    21    22    1
    10    22    23   ar
    11    23    24   ar
    12    24    25   ar
    13    25    26   ar
    14    26    27   ar
    15     7     8    1
    16     8     9    1
    17     4    10    1
    18    10    11    1
    19    11    14    1
    20    14    15   ar
    21    15    16   ar
    22    16    17   ar
    23    17    18   ar
    24    18    19   ar
    25    11    12   am
    26    12    13    2
    27    12     2    1
    28     9     4    1
    29    19    14   ar
    30    27    22   ar
@<TRIPOS>MOLECULE
*****
 27 30 0 0 0
SMALL
GASTEIGER

@<TRIPOS>ATOM
      1 C         138.1158  139.3486  165.1985 C.3     1  UNL1        0.0420
      2 C         138.9746  140.5758  165.2798 C.3     1  UNL1        0.1912
      3 O         139.0995  141.4837  164.0924 O.3     1  UNL1       -0.3500
      4 C         139.9583  142.7109  164.1736 C.3     1  UNL1        0.1145
      5 C         140.8171  143.9381  164.2549 C.3     1  UNL1        0.0463
      6 C         140.9420  144.8460  163.0675 C.3     1  UNL1        0.0746
      7 N         140.2081  144.5268  161.7988 N.3     1  UNL1       -0.2722
      8 C         139.3494  143.2997  161.7175 C.3     1  UNL1        0.0746
      9 C         139.2245  142.3918  162.9049 C.3     1  UNL1        0.0463
     10 C         140.6922  143.0301  165.4423 C.3     1  UNL1        0.1254
     11 N         140.5672  142.1221  166.6298 N.am    1  UNL1       -0.2543
     12 C         139.7084  140.8950  166.5485 C.2     1  UNL1        0.2566
     13 O         139.5835  139.9869  167.7359 O.2     1  UNL1       -0.2719
     14 C         141.3011  142.4412  167.8985 C.ar    1  UNL1        0.0540
     15 C         142.7197  141.9885  168.0785 C.ar    1  UNL1        0.0149
     16 C         143.4535  142.3076  169.3472 C.ar    1  UNL1        0.0013
     17 C         142.7688  143.0796  170.4359 C.ar    1  UNL1        0.0001
     18 C         141.3501  143.5324  170.2559 C.ar    1  UNL1        0.0013
     19 C         140.6162  143.2132  168.9872 C.ar    1  UNL1        0.0149
     20 C         140.3331  145.4349  160.6114 C.3     1  UNL1        0.0784
     21 C         141.3998  145.1867  159.5864 C.3     1  UNL1        0.0631
     22 C         141.1480  145.5208  158.1459 C.ar    1  UNL1        0.0604
     23 C         142.1097  145.0618  157.0903 C.ar    1  UNL1        0.0148
     24 C         141.8579  145.3959  155.6499 C.ar    1  UNL1        0.0028
     25 C         140.6444  146.1890  155.2650 C.ar    1  UNL1        0.0207
     26 C         139.6826  146.6481  156.3206 C.ar    1  UNL1        0.0984
     27 N         139.9344  146.3140  157.7610 N.ar    1  UNL1       -0.2481
@<TRIPOS>BOND
     1     1     2    1
     2     2     3    1
     3     3     4    1
     4     4     5    1
     5     5     6    1
     6     6     7    1
     7     7    20    1
     8    20    21    1
     9    21    22    1
    10    22    23   ar
    11    23    24   ar
    12    24    25   ar
    13    25    26   ar
    14    26    27   ar
    15     7     8    1
    16     8     9    1
    17     4    10    1
    18    10    11    1
    19    11    14    1
    20    14    15   ar
    21    15    16   ar
    22    16    17   ar
    23    17    18   ar
    24    18    19   ar
    25    11    12   am
    26    12    13    2
    27    12     2    1
    28     9     4    1
    29    19    14   ar
    30    27    22   ar
@<TRIPOS>MOLECULE
*****
 27 30 0 0 0
SMALL
GASTEIGER

@<TRIPOS>ATOM
      1 C         137.2293  138.0223  167.2884 C.3     1  UNL1        0.0420
      2 C         138.2680  138.9784  166.7814 C.3     1  UNL1        0.1912
      3 O         138.4687  139.1543  165.3054 O.3     1  UNL1       -0.3500
      4 C         139.5075  140.1104  164.7984 C.3     1  UNL1        0.1145
      5 C         140.5462  141.0665  164.2915 C.3     1  UNL1        0.0463
      6 C         140.7469  141.2425  162.8155 C.3     1  UNL1        0.0746
      7 N         139.9089  140.4624  161.8464 N.3     1  UNL1       -0.2722
      8 C         138.8702  139.5063  162.3533 C.3     1  UNL1        0.0746
      9 C         138.6695  139.3304  163.8293 C.3     1  UNL1        0.0463
     10 C         140.3455  140.8905  165.7676 C.3     1  UNL1        0.1254
     11 N         140.1447  140.7145  167.2437 N.am    1  UNL1       -0.2543
     12 C         139.1060  139.7585  167.7506 C.2     1  UNL1        0.2566
     13 O         138.9053  139.5825  169.2267 O.2     1  UNL1       -0.2719
     14 C         140.9827  141.4946  168.2128 C.ar    1  UNL1        0.0540
     15 C         140.3963  142.6728  168.9324 C.ar    1  UNL1        0.0149
     16 C         141.2343  143.4529  169.9015 C.ar    1  UNL1        0.0013
     17 C         142.6587  143.0548  170.1511 C.ar    1  UNL1        0.0001
     18 C         143.2453  141.8765  169.4314 C.ar    1  UNL1        0.0013
     19 C         142.4073  141.0964  168.4623 C.ar    1  UNL1        0.0149
     20 C         140.1097  140.6384  160.3703 C.3     1  UNL1        0.0784
     21 C         139.3597  139.7716  159.4027 C.3     1  UNL1        0.0631
     22 C         140.1073  138.8438  158.4915 C.ar    1  UNL1        0.0604
     23 C         141.5578  138.5548  158.7414 C.ar    1  UNL1        0.0148
     24 C         142.3054  137.6270  157.8302 C.ar    1  UNL1        0.0028
     25 C         141.6025  136.9883  156.6692 C.ar    1  UNL1        0.0207
     26 C         140.1520  137.2773  156.4194 C.ar    1  UNL1        0.0984
     27 N         139.4044  138.2051  157.3305 N.ar    1  UNL1       -0.2481
@<TRIPOS>BOND
     1     1     2    1
     2     2     3    1
     3     3     4    1
     4     4     5    1
     5     5     6    1
     6     6     7    1
     7     7    20    1
     8    20    21    1
     9    21    22    1
    10    22    23   ar
    11    23    24   ar
    12    24    25   ar
    13    25    26   ar
    14    26    27   ar
    15     7     8    1
    16     8     9    1
    17     4    10    1
    18    10    11    1
    19    11    14    1
    20    14    15   ar
    21    15    16   ar
    22    16    17   ar
    23    17    18   ar
    24    18    19   ar
    25    11    12   am
    26    12    13    2
    27    12     2    1
    28     9     4    1
    29    19    14   ar
    30    27    22   ar
@<TRIPOS>MOLECULE
*****
 27 30 0 0 0
SMALL
GASTEIGER

@<TRIPOS>ATOM
      1 C         137.3413  138.0512  167.2314 C.3     1  UNL1        0.0420
      2 C         138.2215  139.1624  166.7409 C.3     1  UNL1        0.1912
      3 O         138.1945  139.5576  165.2941 O.3     1  UNL1       -0.3500
      4 C         139.0747  140.6688  164.8036 C.3     1  UNL1        0.1145
      5 C         139.9549  141.7800  164.3132 C.3     1  UNL1        0.0463
      6 C         139.9279  142.1751  162.8664 C.3     1  UNL1        0.0746
      7 N         139.0208  141.4591  161.9101 N.3     1  UNL1       -0.2722
      8 C         138.1406  140.3480  162.4006 C.3     1  UNL1        0.0746
      9 C         138.1676  139.9528  163.8473 C.3     1  UNL1        0.0463
     10 C         139.9818  141.3848  165.7599 C.3     1  UNL1        0.1254
     11 N         140.0088  140.9896  167.2067 N.am    1  UNL1       -0.2543
     12 C         139.1286  139.8784  167.6971 C.2     1  UNL1        0.2566
     13 O         139.1555  139.4832  169.1439 O.2     1  UNL1       -0.2719
     14 C         140.9159  141.7056  168.1630 C.ar    1  UNL1        0.0540
     15 C         142.3670  141.3341  168.2410 C.ar    1  UNL1        0.0149
     16 C         143.2741  142.0501  169.1973 C.ar    1  UNL1        0.0013
     17 C         142.7301  143.1376  170.0755 C.ar    1  UNL1        0.0001
     18 C         141.2789  143.5092  169.9975 C.ar    1  UNL1        0.0013
     19 C         140.3718  142.7932  169.0412 C.ar    1  UNL1        0.0149
     20 C         138.9939  141.8543  160.4633 C.3     1  UNL1        0.0784
     21 C         138.6131  140.8483  159.4180 C.3     1  UNL1        0.0631
     22 C         137.9935  141.3030  158.1298 C.ar    1  UNL1        0.0604
     23 C         138.1917  142.7133  157.6589 C.ar    1  UNL1        0.0148
     24 C         137.5721  143.1680  156.3708 C.ar    1  UNL1        0.0028
     25 C         136.7542  142.2124  155.5536 C.ar    1  UNL1        0.0207
     26 C         136.5559  140.8021  156.0245 C.ar    1  UNL1        0.0984
     27 N         137.1756  140.3474  157.3126 N.ar    1  UNL1       -0.2481
@<TRIPOS>BOND
     1     1     2    1
     2     2     3    1
     3     3     4    1
     4     4     5    1
     5     5     6    1
     6     6     7    1
     7     7    20    1
     8    20    21    1
     9    21    22    1
    10    22    23   ar
    11    23    24   ar
    12    24    25   ar
    13    25    26   ar
    14    26    27   ar
    15     7     8    1
    16     8     9    1
    17     4    10    1
    18    10    11    1
    19    11    14    1
    20    14    15   ar
    21    15    16   ar
    22    16    17   ar
    23    17    18   ar
    24    18    19   ar
    25    11    12   am
    26    12    13    2
    27    12     2    1
    28     9     4    1
    29    19    14   ar
    30    27    22   ar
@<TRIPOS>MOLECULE
*****
 27 30 0 0 0
SMALL
GASTEIGER

@<TRIPOS>ATOM
      1 C         143.8683  138.0448  166.2839 C.3     1  UNL1        0.0420
      2 C         142.5623  138.7808  166.2297 C.3     1  UNL1        0.1912
      3 O         141.6587  138.6188  165.0435 O.3     1  UNL1       -0.3500
      4 C         140.3528  139.3549  164.9894 C.3     1  UNL1        0.1145
      5 C         139.0469  140.0909  164.9353 C.3     1  UNL1        0.0463
      6 C         138.1433  139.9289  163.7491 C.3     1  UNL1        0.0746
      7 N         138.5455  139.0308  162.6170 N.3     1  UNL1       -0.2722
      8 C         139.8513  138.2947  162.6711 C.3     1  UNL1        0.0746
      9 C         140.7550  138.4568  163.8573 C.3     1  UNL1        0.0463
     10 C         139.9506  140.2530  166.1215 C.3     1  UNL1        0.1254
     11 N         140.8543  140.4150  167.3077 N.am    1  UNL1       -0.2543
     12 C         142.1602  139.6789  167.3618 C.2     1  UNL1        0.2566
     13 O         143.0639  139.8410  168.5481 O.2     1  UNL1       -0.2719
     14 C         140.4521  141.3131  168.4399 C.ar    1  UNL1        0.0540
     15 C         139.5662  140.7919  169.5323 C.ar    1  UNL1        0.0149
     16 C         139.1641  141.6900  170.6644 C.ar    1  UNL1        0.0013
     17 C         139.6477  143.1093  170.7041 C.ar    1  UNL1        0.0001
     18 C         140.5337  143.6305  169.6116 C.ar    1  UNL1        0.0013
     19 C         140.9359  142.7324  168.4795 C.ar    1  UNL1        0.0149
     20 C         137.6417  138.8688  161.4308 C.3     1  UNL1        0.0784
     21 C         137.6878  139.8658  160.3111 C.3     1  UNL1        0.0631
     22 C         138.7273  140.9473  160.3121 C.ar    1  UNL1        0.0604
     23 C         138.3979  142.3035  160.8618 C.ar    1  UNL1        0.0148
     24 C         139.4374  143.3850  160.8628 C.ar    1  UNL1        0.0028
     25 C         140.8061  143.1102  160.3142 C.ar    1  UNL1        0.0207
     26 C         141.1354  141.7540  159.7645 C.ar    1  UNL1        0.0984
     27 N         140.0960  140.6725  159.7635 N.ar    1  UNL1       -0.2481
@<TRIPOS>BOND
     1     1     2    1
     2     2     3    1
     3     3     4    1
     4     4     5    1
     5     5     6    1
     6     6     7    1
     7     7    20    1
     8    20    21    1
     9    21    22    1
    10    22    23   ar
    11    23    24   ar
    12    24    25   ar
    13    25    26   ar
    14    26    27   ar
    15     7     8    1
    16     8     9    1
    17     4    10    1
    18    10    11    1
    19    11    14    1
    20    14    15   ar
    21    15    16   ar
    22    16    17   ar
    23    17    18   ar
    24    18    19   ar
    25    11    12   am
    26    12    13    2
    27    12     2    1
    28     9     4    1
    29    19    14   ar
    30    27    22   ar
@<TRIPOS>MOLECULE
*****
 27 30 0 0 0
SMALL
GASTEIGER

@<TRIPOS>ATOM
      1 C         143.8139  138.0326  166.2343 C.3     1  UNL1        0.0420
      2 C         142.5356  138.8151  166.1725 C.3     1  UNL1        0.1912
      3 O         141.6607  138.7278  164.9573 O.3     1  UNL1       -0.3500
      4 C         140.3824  139.5103  164.8956 C.3     1  UNL1        0.1145
      5 C         139.1042  140.2927  164.8339 C.3     1  UNL1        0.0463
      6 C         138.2293  140.2054  163.6186 C.3     1  UNL1        0.0746
      7 N         138.6327  139.3357  162.4650 N.3     1  UNL1       -0.2722
      8 C         139.9109  138.5533  162.5267 C.3     1  UNL1        0.0746
      9 C         140.7858  138.6406  163.7420 C.3     1  UNL1        0.0463
     10 C         139.9791  140.3800  166.0492 C.3     1  UNL1        0.1254
     11 N         140.8540  140.4673  167.2645 N.am    1  UNL1       -0.2543
     12 C         142.1322  139.6849  167.3262 C.2     1  UNL1        0.2566
     13 O         143.0072  139.7721  168.5415 O.2     1  UNL1       -0.2719
     14 C         140.4506  141.3370  168.4181 C.ar    1  UNL1        0.0540
     15 C         139.5609  140.7899  169.4947 C.ar    1  UNL1        0.0149
     16 C         139.1576  141.6597  170.6483 C.ar    1  UNL1        0.0013
     17 C         139.6439  143.0765  170.7254 C.ar    1  UNL1        0.0001
     18 C         140.5337  143.6237  169.6488 C.ar    1  UNL1        0.0013
     19 C         140.9371  142.7540  168.4952 C.ar    1  UNL1        0.0149
     20 C         137.7578  139.2484  161.2497 C.3     1  UNL1        0.0784
     21 C         137.9448  140.2171  160.1198 C.3     1  UNL1        0.0631
     22 C         138.5450  139.7532  158.8257 C.ar    1  UNL1        0.0604
     23 C         139.6690  138.7599  158.8338 C.ar    1  UNL1        0.0148
     24 C         140.2692  138.2961  157.5398 C.ar    1  UNL1        0.0028
     25 C         139.7455  138.8254  156.2377 C.ar    1  UNL1        0.0207
     26 C         138.6215  139.8186  156.2296 C.ar    1  UNL1        0.0984
     27 N         138.0213  140.2825  157.5237 N.ar    1  UNL1       -0.2481
@<TRIPOS>BOND
     1     1     2    1
     2     2     3    1
     3     3     4    1
     4     4     5    1
     5     5     6    1
     6     6     7    1
     7     7    20    1
     8    20    21    1
     9    21    22    1
    10    22    23   ar
    11    23    24   ar
    12    24    25   ar
    13    25    26   ar
    14    26    27   ar
    15     7     8    1
    16     8     9    1
    17     4    10    1
    18    10    11    1
    19    11    14    1
    20    14    15   ar
    21    15    16   ar
    22    16    17   ar
    23    17    18   ar
    24    18    19   ar
    25    11    12   am
    26    12    13    2
    27    12     2    1
    28     9     4    1
    29    19    14   ar
    30    27    22   ar
@<TRIPOS>MOLECULE
*****
 27 30 0 0 0
SMALL
GASTEIGER

@<TRIPOS>ATOM
      1 C         144.3172  137.4690  166.8166 C.3     1  UNL1        0.0420
      2 C         143.4835  138.6729  166.4915 C.3     1  UNL1        0.1912
      3 O         143.3693  139.1451  165.0723 O.3     1  UNL1       -0.3500
      4 C         142.5357  140.3491  164.7472 C.3     1  UNL1        0.1145
      5 C         141.7021  141.5530  164.4222 C.3     1  UNL1        0.0463
      6 C         141.5879  142.0251  163.0031 C.3     1  UNL1        0.0746
      7 N         142.3073  141.2934  161.9090 N.3     1  UNL1       -0.2722
      8 C         143.1409  140.0895  162.2340 C.3     1  UNL1        0.0746
      9 C         143.2551  139.6173  163.6532 C.3     1  UNL1        0.0463
     10 C         141.8163  141.0808  165.8413 C.3     1  UNL1        0.1254
     11 N         141.9306  140.6086  167.2605 N.am    1  UNL1       -0.2543
     12 C         142.7642  139.4047  167.5856 C.2     1  UNL1        0.2566
     13 O         142.8784  138.9325  169.0048 O.2     1  UNL1       -0.2719
     14 C         141.2112  141.3403  168.3546 C.ar    1  UNL1        0.0540
     15 C         140.0309  140.7074  169.0301 C.ar    1  UNL1        0.0149
     16 C         139.3116  141.4392  170.1242 C.ar    1  UNL1        0.0013
     17 C         139.7724  142.8038  170.5428 C.ar    1  UNL1        0.0001
     18 C         140.9528  143.4368  169.8673 C.ar    1  UNL1        0.0013
     19 C         141.6721  142.7051  168.7732 C.ar    1  UNL1        0.0149
     20 C         142.1931  141.7656  160.4898 C.3     1  UNL1        0.0784
     21 C         141.0190  141.3507  159.6535 C.3     1  UNL1        0.0631
     22 C         139.9340  140.5046  160.2512 C.ar    1  UNL1        0.0604
     23 C         140.0960  139.0150  160.3187 C.ar    1  UNL1        0.0148
     24 C         139.0110  138.1690  160.9163 C.ar    1  UNL1        0.0028
     25 C         137.7642  138.8127  161.4465 C.ar    1  UNL1        0.0207
     26 C         137.6023  140.3024  161.3790 C.ar    1  UNL1        0.0984
     27 N         138.6872  141.1483  160.7813 N.ar    1  UNL1       -0.2481
@<TRIPOS>BOND
     1     1     2    1
     2     2     3    1
     3     3     4    1
     4     4     5    1
     5     5     6    1
     6     6     7    1
     7     7    20    1
     8    20    21    1
     9    21    22    1
    10    22    23   ar
    11    23    24   ar
    12    24    25   ar
    13    25    26   ar
    14    26    27   ar
    15     7     8    1
    16     8     9    1
    17     4    10    1
    18    10    11    1
    19    11    14    1
    20    14    15   ar
    21    15    16   ar
    22    16    17   ar
    23    17    18   ar
    24    18    19   ar
    25    11    12   am
    26    12    13    2
    27    12     2    1
    28     9     4    1
    29    19    14   ar
    30    27    22   ar
