@<TRIPOS>MOLECULE
*****
 36 40 0 0 0
SMALL
GASTEIGER

@<TRIPOS>ATOM
      1 N         138.8620  139.8696  162.7895 N.3     1  UNL1       -0.2690
      2 C         137.8021  140.9310  162.7836 C.3     1  UNL1        0.0725
      3 C         137.7960  141.9789  161.7103 C.3     1  UNL1        0.0211
      4 C         138.8498  141.9655  160.6429 C.3     1  UNL1        0.0466
      5 C         139.9097  140.9041  160.6488 C.3     1  UNL1        0.0211
      6 C         139.9158  139.8562  161.7221 C.3     1  UNL1        0.0725
      7 C         138.8682  138.8217  163.8627 C.3     1  UNL1        0.0991
      8 C         140.4809  139.7960  167.9493 C.ar    1  UNL1       -0.0179
      9 C         138.9994  139.7401  167.7214 C.ar    1  UNL1       -0.0042
     10 C         138.4618  139.4154  166.3593 C.ar    1  UNL1       -0.0032
     11 C         139.4057  139.1465  165.2249 C.ar    1  UNL1       -0.0062
     12 C         140.8872  139.2024  165.4528 C.ar    1  UNL1       -0.0032
     13 C         141.4248  139.5271  166.8149 C.ar    1  UNL1       -0.0042
     14 C         139.6249  140.3891  169.7974 C.3     1  UNL1        0.0100
     15 C         141.0184  140.1207  169.3115 C.3     1  UNL1        0.0509
     16 C         142.4119  139.8523  168.8256 C.3     1  UNL1        0.0100
     17 C         141.5560  140.4454  170.6737 C.2     1  UNL1        0.0534
     18 O         142.9906  140.1564  171.0023 O.co2   1  UNL1       -0.5489
     19 O         140.6587  141.0593  171.7073 O.co2   1  UNL1       -0.5489
     20 C         138.8437  143.0134  159.5697 C.3     1  UNL1        0.2087
     21 O         139.8029  144.1644  159.6399 O.3     1  UNL1       -0.4453
     22 C         140.0623  144.8458  160.9507 C.2     1  UNL1        0.3458
     23 O         139.5017  146.2129  161.2092 O.2     1  UNL1       -0.2447
     24 C         140.8823  144.1601  162.0031 C.ar    1  UNL1        0.1283
     25 C         142.2557  143.5869  161.8162 C.ar    1  UNL1        0.2121
     26 N         142.6949  142.9998  163.1248 N.ar    1  UNL1       -0.2989
     27 C         141.5929  143.2101  164.1204 C.ar    1  UNL1        0.0626
     28 C         141.4648  142.8414  165.5687 C.ar    1  UNL1        0.0173
     29 C         140.2164  143.1897  166.3237 C.ar    1  UNL1        0.0015
     30 C         139.0961  143.9068  165.6305 C.ar    1  UNL1        0.0001
     31 C         139.2242  144.2756  164.1822 C.ar    1  UNL1        0.0018
     32 C         140.4726  143.9273  163.4272 C.ar    1  UNL1        0.0266
     33 C         144.0417  142.3495  163.2407 C.3     1  UNL1        0.1127
     34 C         144.9492  142.2863  162.0480 C.3     1  UNL1        0.0719
     35 C         144.5100  142.8734  160.7394 C.3     1  UNL1        0.2091
     36 O         143.1633  143.5237  160.6235 O.3     1  UNL1       -0.4611
@<TRIPOS>UNITY_ATOM_ATTR
18 1
charge -1
@<TRIPOS>BOND
     1    14    15    1
     2    15    16    1
     3    15    17    1
     4    17    18   ar
     5    17    19   ar
     6    15     8    1
     7     8     9   ar
     8     9    10   ar
     9    10    11   ar
    10    11     7    1
    11     7     1    1
    12     1     2    1
    13     2     3    1
    14     3     4    1
    15     4    20    1
    16    20    21    1
    17    21    22    1
    18    22    23    2
    19    22    24    1
    20    24    25   ar
    21    25    26   ar
    22    26    27   ar
    23    27    28   ar
    24    28    29   ar
    25    29    30   ar
    26    30    31   ar
    27    31    32   ar
    28    26    33    1
    29    33    34    1
    30    34    35    1
    31    35    36    1
    32     4     5    1
    33     5     6    1
    34    11    12   ar
    35    12    13   ar
    36    13     8   ar
    37     6     1    1
    38    32    24   ar
    39    36    25    1
    40    32    27   ar
@<TRIPOS>MOLECULE
*****
 36 40 0 0 0
SMALL
GASTEIGER

@<TRIPOS>ATOM
      1 N         139.1823  139.4068  163.3972 N.3     1  UNL1       -0.2690
      2 C         140.2758  139.4046  162.3706 C.3     1  UNL1        0.0725
      3 C         140.1038  140.1663  161.0898 C.3     1  UNL1        0.0211
      4 C         138.8381  140.9302  160.8357 C.3     1  UNL1        0.0466
      5 C         137.7445  140.9323  161.8624 C.3     1  UNL1        0.0211
      6 C         137.9166  140.1707  163.1431 C.3     1  UNL1        0.0725
      7 C         139.3543  138.6451  164.6779 C.3     1  UNL1        0.0991
      8 C         140.5465  140.8084  168.4394 C.ar    1  UNL1       -0.0179
      9 C         139.2252  140.1023  168.3671 C.ar    1  UNL1       -0.0042
     10 C         138.8277  139.3812  167.1133 C.ar    1  UNL1       -0.0032
     11 C         139.7517  139.3662  165.9318 C.ar    1  UNL1       -0.0062
     12 C         141.0731  140.0724  166.0041 C.ar    1  UNL1       -0.0032
     13 C         141.4705  140.7935  167.2579 C.ar    1  UNL1       -0.0042
     14 C         140.6527  142.8431  169.0301 C.3     1  UNL1        0.0100
     15 C         140.9439  141.5295  169.6933 C.3     1  UNL1        0.0509
     16 C         141.2351  140.2160  170.3564 C.3     1  UNL1        0.0100
     17 C         141.3413  142.2506  170.9471 C.2     1  UNL1        0.0534
     18 O         142.5479  143.1416  170.9495 O.co2   1  UNL1       -0.5489
     19 O         140.5319  142.0806  172.1986 O.co2   1  UNL1       -0.5489
     20 C         138.6660  141.6918  159.5550 C.3     1  UNL1        0.2087
     21 O         138.6075  143.1906  159.5758 O.3     1  UNL1       -0.4453
     22 C         139.8357  143.9846  159.9087 C.2     1  UNL1        0.3458
     23 O         140.3619  144.9961  158.9340 O.2     1  UNL1       -0.2447
     24 C         140.5378  143.7672  161.2164 C.ar    1  UNL1        0.1283
     25 C         141.9774  143.3838  161.3911 C.ar    1  UNL1        0.2121
     26 N         142.2527  143.2748  162.8615 N.ar    1  UNL1       -0.2989
     27 C         140.9834  143.5908  163.5956 C.ar    1  UNL1        0.0626
     28 C         140.6557  143.6407  165.0585 C.ar    1  UNL1        0.0173
     29 C         139.2681  143.9949  165.5046 C.ar    1  UNL1        0.0015
     30 C         138.2082  144.2993  164.4878 C.ar    1  UNL1        0.0001
     31 C         138.5358  144.2494  163.0249 C.ar    1  UNL1        0.0018
     32 C         139.9234  143.8951  162.5788 C.ar    1  UNL1        0.0266
     33 C         143.6238  142.9018  163.3421 C.3     1  UNL1        0.1127
     34 C         144.7195  142.6379  162.3523 C.3     1  UNL1        0.0719
     35 C         144.4442  142.7470  160.8818 C.3     1  UNL1        0.2091
     36 O         143.0731  143.1199  160.4012 O.3     1  UNL1       -0.4611
@<TRIPOS>UNITY_ATOM_ATTR
18 1
charge -1
@<TRIPOS>BOND
     1    14    15    1
     2    15    16    1
     3    15    17    1
     4    17    18   ar
     5    17    19   ar
     6    15     8    1
     7     8     9   ar
     8     9    10   ar
     9    10    11   ar
    10    11     7    1
    11     7     1    1
    12     1     2    1
    13     2     3    1
    14     3     4    1
    15     4    20    1
    16    20    21    1
    17    21    22    1
    18    22    23    2
    19    22    24    1
    20    24    25   ar
    21    25    26   ar
    22    26    27   ar
    23    27    28   ar
    24    28    29   ar
    25    29    30   ar
    26    30    31   ar
    27    31    32   ar
    28    26    33    1
    29    33    34    1
    30    34    35    1
    31    35    36    1
    32     4     5    1
    33     5     6    1
    34    11    12   ar
    35    12    13   ar
    36    13     8   ar
    37     6     1    1
    38    32    24   ar
    39    36    25    1
    40    32    27   ar
@<TRIPOS>MOLECULE
*****
 36 40 0 0 0
SMALL
GASTEIGER

@<TRIPOS>ATOM
      1 N         143.1479  141.0800  162.9305 N.3     1  UNL1       -0.2690
      2 C         142.8807  139.8098  162.1787 C.3     1  UNL1        0.0725
      3 C         142.0834  139.8436  160.9085 C.3     1  UNL1        0.0211
      4 C         141.5533  141.1476  160.3902 C.3     1  UNL1        0.0466
      5 C         141.8205  142.4177  161.1421 C.3     1  UNL1        0.0211
      6 C         142.6178  142.3839  162.4122 C.3     1  UNL1        0.0725
      7 C         143.9452  141.0462  164.2006 C.3     1  UNL1        0.0991
      8 C         141.8430  140.7742  168.1702 C.ar    1  UNL1       -0.0179
      9 C         141.8654  139.5894  167.2506 C.ar    1  UNL1       -0.0042
     10 C         142.5661  139.6800  165.9274 C.ar    1  UNL1       -0.0032
     11 C         143.2444  140.9555  165.5238 C.ar    1  UNL1       -0.0062
     12 C         143.2221  142.1404  166.4433 C.ar    1  UNL1       -0.0032
     13 C         142.5214  142.0498  167.7665 C.ar    1  UNL1       -0.0042
     14 C         142.4017  141.1070  170.1893 C.3     1  UNL1        0.0100
     15 C         141.1423  140.6835  169.4933 C.3     1  UNL1        0.0509
     16 C         139.8828  140.2601  168.7973 C.3     1  UNL1        0.0100
     17 C         140.4416  140.5928  170.8165 C.2     1  UNL1        0.0534
     18 O         139.4599  139.4877  171.0711 O.co2   1  UNL1       -0.5489
     19 O         140.7226  141.6074  171.8850 O.co2   1  UNL1       -0.5489
     20 C         140.7560  141.1813  159.1201 C.3     1  UNL1        0.2087
     21 O         139.3066  141.5660  159.1544 O.3     1  UNL1       -0.4453
     22 C         138.3413  140.7788  159.9900 C.2     1  UNL1        0.3458
     23 O         137.3311  139.8878  159.3297 O.2     1  UNL1       -0.2447
     24 C         138.3859  140.8824  161.4857 C.ar    1  UNL1        0.1283
     25 C         138.2095  142.1373  162.2882 C.ar    1  UNL1        0.2121
     26 N         138.3295  141.7798  163.7400 N.ar    1  UNL1       -0.2989
     27 C         138.5800  140.3039  163.8348 C.ar    1  UNL1        0.0626
     28 C         138.7809  139.3933  165.0097 C.ar    1  UNL1        0.0173
     29 C         139.0166  137.9282  164.7914 C.ar    1  UNL1        0.0015
     30 C         139.0515  137.3736  163.3982 C.ar    1  UNL1        0.0001
     31 C         138.8507  138.2841  162.2232 C.ar    1  UNL1        0.0018
     32 C         138.6149  139.7493  162.4415 C.ar    1  UNL1        0.0266
     33 C         138.1951  142.8443  164.7882 C.3     1  UNL1        0.1127
     34 C         137.9407  144.2664  164.3845 C.3     1  UNL1        0.0719
     35 C         137.8208  144.6240  162.9327 C.3     1  UNL1        0.2091
     36 O         137.9552  143.5595  161.8846 O.3     1  UNL1       -0.4611
@<TRIPOS>UNITY_ATOM_ATTR
18 1
charge -1
@<TRIPOS>BOND
     1    14    15    1
     2    15    16    1
     3    15    17    1
     4    17    18   ar
     5    17    19   ar
     6    15     8    1
     7     8     9   ar
     8     9    10   ar
     9    10    11   ar
    10    11     7    1
    11     7     1    1
    12     1     2    1
    13     2     3    1
    14     3     4    1
    15     4    20    1
    16    20    21    1
    17    21    22    1
    18    22    23    2
    19    22    24    1
    20    24    25   ar
    21    25    26   ar
    22    26    27   ar
    23    27    28   ar
    24    28    29   ar
    25    29    30   ar
    26    30    31   ar
    27    31    32   ar
    28    26    33    1
    29    33    34    1
    30    34    35    1
    31    35    36    1
    32     4     5    1
    33     5     6    1
    34    11    12   ar
    35    12    13   ar
    36    13     8   ar
    37     6     1    1
    38    32    24   ar
    39    36    25    1
    40    32    27   ar
@<TRIPOS>MOLECULE
*****
 36 40 0 0 0
SMALL
GASTEIGER

@<TRIPOS>ATOM
      1 N         142.3084  138.5297  163.6024 N.3     1  UNL1       -0.2690
      2 C         141.3372  138.6949  162.4713 C.3     1  UNL1        0.0725
      3 C         141.8050  139.2396  161.1544 C.3     1  UNL1        0.0211
      4 C         143.2442  139.6192  160.9684 C.3     1  UNL1        0.0466
      5 C         144.2155  139.4540  162.0995 C.3     1  UNL1        0.0211
      6 C         143.7477  138.9093  163.4164 C.3     1  UNL1        0.0725
      7 C         141.8406  137.9850  164.9193 C.3     1  UNL1        0.0991
      8 C         140.9244  140.7900  168.3168 C.ar    1  UNL1       -0.0179
      9 C         142.3168  140.2629  168.1340 C.ar    1  UNL1       -0.0042
     10 C         142.6222  139.3279  167.0016 C.ar    1  UNL1       -0.0032
     11 C         141.5352  138.9200  166.0518 C.ar    1  UNL1       -0.0062
     12 C         140.1428  139.4471  166.2345 C.ar    1  UNL1       -0.0032
     13 C         139.8374  140.3820  167.3670 C.ar    1  UNL1       -0.0042
     14 C         139.5095  140.8204  169.8970 C.3     1  UNL1        0.0100
     15 C         140.6191  141.7250  169.4493 C.3     1  UNL1        0.0509
     16 C         141.7286  142.6296  169.0016 C.3     1  UNL1        0.0100
     17 C         140.3137  142.6600  170.5817 C.2     1  UNL1        0.0534
     18 O         139.9394  144.0845  170.2981 O.co2   1  UNL1       -0.5489
     19 O         140.3827  142.1703  171.9980 O.co2   1  UNL1       -0.5489
     20 C         143.7121  140.1639  159.6515 C.3     1  UNL1        0.2087
     21 O         144.1924  141.5816  159.5543 O.3     1  UNL1       -0.4453
     22 C         143.2565  142.7132  159.8598 C.2     1  UNL1        0.3458
     23 O         143.1131  143.8501  158.8918 O.2     1  UNL1       -0.2447
     24 C         142.4639  142.7081  161.1333 C.ar    1  UNL1        0.1283
     25 C         140.9691  142.6478  161.2412 C.ar    1  UNL1        0.2121
     26 N         140.6084  142.6648  162.6971 N.ar    1  UNL1       -0.2989
     27 C         141.8804  142.7355  163.4890 C.ar    1  UNL1        0.0626
     28 C         142.1425  142.7791  164.9653 C.ar    1  UNL1        0.0173
     29 C         143.5514  142.8493  165.4750 C.ar    1  UNL1        0.0015
     30 C         144.6983  142.8761  164.5085 C.ar    1  UNL1        0.0001
     31 C         144.4361  142.8326  163.0323 C.ar    1  UNL1        0.0018
     32 C         143.0272  142.7623  162.5225 C.ar    1  UNL1        0.0266
     33 C         139.1683  142.6136  163.1137 C.3     1  UNL1        0.1127
     34 C         138.0889  142.5455  162.0743 C.3     1  UNL1        0.0719
     35 C         138.4496  142.5285  160.6184 C.3     1  UNL1        0.2091
     36 O         139.8896  142.5797  160.2019 O.3     1  UNL1       -0.4611
@<TRIPOS>UNITY_ATOM_ATTR
18 1
charge -1
@<TRIPOS>BOND
     1    14    15    1
     2    15    16    1
     3    15    17    1
     4    17    18   ar
     5    17    19   ar
     6    15     8    1
     7     8     9   ar
     8     9    10   ar
     9    10    11   ar
    10    11     7    1
    11     7     1    1
    12     1     2    1
    13     2     3    1
    14     3     4    1
    15     4    20    1
    16    20    21    1
    17    21    22    1
    18    22    23    2
    19    22    24    1
    20    24    25   ar
    21    25    26   ar
    22    26    27   ar
    23    27    28   ar
    24    28    29   ar
    25    29    30   ar
    26    30    31   ar
    27    31    32   ar
    28    26    33    1
    29    33    34    1
    30    34    35    1
    31    35    36    1
    32     4     5    1
    33     5     6    1
    34    11    12   ar
    35    12    13   ar
    36    13     8   ar
    37     6     1    1
    38    32    24   ar
    39    36    25    1
    40    32    27   ar
@<TRIPOS>MOLECULE
*****
 36 40 0 0 0
SMALL
GASTEIGER

@<TRIPOS>ATOM
      1 N         142.9727  139.0995  163.1425 N.3     1  UNL1       -0.2690
      2 C         143.0792  140.2789  162.2218 C.3     1  UNL1        0.0725
      3 C         142.2511  140.3320  160.9722 C.3     1  UNL1        0.0211
      4 C         141.3166  139.2057  160.6432 C.3     1  UNL1        0.0466
      5 C         141.2102  138.0263  161.5640 C.3     1  UNL1        0.0211
      6 C         142.0382  137.9732  162.8136 C.3     1  UNL1        0.0725
      7 C         143.8008  139.0464  164.3921 C.3     1  UNL1        0.0991
      8 C         142.5017  141.3223  168.0504 C.ar    1  UNL1       -0.0179
      9 C         142.4277  139.8243  168.0335 C.ar    1  UNL1       -0.0042
     10 C         142.8607  139.0656  166.8142 C.ar    1  UNL1       -0.0032
     11 C         143.3677  139.8050  165.6115 C.ar    1  UNL1       -0.0062
     12 C         143.4417  141.3031  165.6284 C.ar    1  UNL1       -0.0032
     13 C         143.0087  142.0618  166.8478 C.ar    1  UNL1       -0.0042
     14 C         143.5041  142.3500  169.6122 C.3     1  UNL1        0.0100
     15 C         142.0687  142.0809  169.2698 C.3     1  UNL1        0.0509
     16 C         140.6333  141.8119  168.9274 C.3     1  UNL1        0.0100
     17 C         141.6357  142.8395  170.4892 C.2     1  UNL1        0.0534
     18 O         141.2323  144.2795  170.3727 O.co2   1  UNL1       -0.5489
     19 O         141.6060  142.1580  171.8252 O.co2   1  UNL1       -0.5489
     20 C         140.4886  139.2588  159.3936 C.3     1  UNL1        0.2087
     21 O         139.3815  140.2633  159.2696 O.3     1  UNL1       -0.4453
     22 C         138.4303  140.4756  160.4097 C.2     1  UNL1        0.3458
     23 O         137.0484  139.8950  160.3516 O.2     1  UNL1       -0.2447
     24 C         138.8608  141.2686  161.6080 C.ar    1  UNL1        0.1283
     25 C         139.2925  142.7052  161.6059 C.ar    1  UNL1        0.2121
     26 N         139.6337  143.0886  163.0153 N.ar    1  UNL1       -0.2989
     27 C         139.4128  141.8891  163.8885 C.ar    1  UNL1        0.0626
     28 C         139.5849  141.6758  165.3632 C.ar    1  UNL1        0.0173
     29 C         139.2793  140.3377  165.9681 C.ar    1  UNL1        0.0015
     30 C         138.8017  139.2128  165.0983 C.ar    1  UNL1        0.0001
     31 C         138.6295  139.4261  163.6236 C.ar    1  UNL1        0.0018
     32 C         138.9351  140.7643  163.0187 C.ar    1  UNL1        0.0266
     33 C         140.1014  144.4805  163.3216 C.3     1  UNL1        0.1127
     34 C         140.2279  145.4890  162.2184 C.3     1  UNL1        0.0719
     35 C         139.8868  145.1055  160.8089 C.3     1  UNL1        0.2091
     36 O         139.4191  143.7136  160.5027 O.3     1  UNL1       -0.4611
@<TRIPOS>UNITY_ATOM_ATTR
18 1
charge -1
@<TRIPOS>BOND
     1    14    15    1
     2    15    16    1
     3    15    17    1
     4    17    18   ar
     5    17    19   ar
     6    15     8    1
     7     8     9   ar
     8     9    10   ar
     9    10    11   ar
    10    11     7    1
    11     7     1    1
    12     1     2    1
    13     2     3    1
    14     3     4    1
    15     4    20    1
    16    20    21    1
    17    21    22    1
    18    22    23    2
    19    22    24    1
    20    24    25   ar
    21    25    26   ar
    22    26    27   ar
    23    27    28   ar
    24    28    29   ar
    25    29    30   ar
    26    30    31   ar
    27    31    32   ar
    28    26    33    1
    29    33    34    1
    30    34    35    1
    31    35    36    1
    32     4     5    1
    33     5     6    1
    34    11    12   ar
    35    12    13   ar
    36    13     8   ar
    37     6     1    1
    38    32    24   ar
    39    36    25    1
    40    32    27   ar
@<TRIPOS>MOLECULE
*****
 36 40 0 0 0
SMALL
GASTEIGER

@<TRIPOS>ATOM
      1 N         141.8170  138.3347  163.7881 N.3     1  UNL1       -0.2690
      2 C         140.5750  137.5556  163.4714 C.3     1  UNL1        0.0725
      3 C         139.9471  137.6645  162.1135 C.3     1  UNL1        0.0211
      4 C         140.5612  138.5526  161.0722 C.3     1  UNL1        0.0466
      5 C         141.8031  139.3318  161.3889 C.3     1  UNL1        0.0211
      6 C         142.4311  139.2228  162.7468 C.3     1  UNL1        0.0725
      7 C         142.4449  138.2258  165.1459 C.3     1  UNL1        0.0991
      8 C         141.1477  140.9885  168.4528 C.ar    1  UNL1       -0.0179
      9 C         142.3595  140.1226  168.6309 C.ar    1  UNL1       -0.0042
     10 C         142.7919  139.2018  167.5287 C.ar    1  UNL1       -0.0032
     11 C         142.0125  139.1467  166.2482 C.ar    1  UNL1       -0.0062
     12 C         140.8007  140.0125  166.0701 C.ar    1  UNL1       -0.0032
     13 C         140.3682  140.9334  167.1723 C.ar    1  UNL1       -0.0042
     14 C         141.8697  142.8171  169.2495 C.3     1  UNL1        0.0100
     15 C         140.7153  141.9094  169.5550 C.3     1  UNL1        0.0509
     16 C         139.5609  141.0016  169.8606 C.3     1  UNL1        0.0100
     17 C         140.2829  142.8302  170.6573 C.2     1  UNL1        0.0534
     18 O         140.2099  142.3281  172.0688 O.co2   1  UNL1       -0.5489
     19 O         139.9235  144.2534  170.3480 O.co2   1  UNL1       -0.5489
     20 C         139.9332  138.6616  159.7144 C.3     1  UNL1        0.2087
     21 O         138.4837  139.0251  159.5853 O.3     1  UNL1       -0.4453
     22 C         138.0918  140.4216  159.2031 C.2     1  UNL1        0.3458
     23 O         137.2764  140.6599  157.9668 O.2     1  UNL1       -0.2447
     24 C         138.5152  141.5798  160.0571 C.ar    1  UNL1        0.1283
     25 C         139.1608  142.8437  159.5716 C.ar    1  UNL1        0.2121
     26 N         139.4119  143.7224  160.7610 N.ar    1  UNL1       -0.2989
     27 C         138.9215  143.0016  161.9817 C.ar    1  UNL1        0.0626
     28 C         138.9080  143.3800  163.4331 C.ar    1  UNL1        0.0173
     29 C         138.3403  142.4342  164.4494 C.ar    1  UNL1        0.0015
     30 C         137.7861  141.1099  164.0144 C.ar    1  UNL1        0.0001
     31 C         137.7996  140.7316  162.5630 C.ar    1  UNL1        0.0018
     32 C         138.3673  141.6774  161.5466 C.ar    1  UNL1        0.0266
     33 C         140.0547  145.0654  160.5789 C.3     1  UNL1        0.1127
     34 C         140.4464  145.5296  159.2074 C.3     1  UNL1        0.0719
     35 C         140.1953  144.6509  158.0179 C.3     1  UNL1        0.2091
     36 O         139.5525  143.3079  158.2000 O.3     1  UNL1       -0.4611
@<TRIPOS>UNITY_ATOM_ATTR
18 1
charge -1
@<TRIPOS>BOND
     1    14    15    1
     2    15    16    1
     3    15    17    1
     4    17    18   ar
     5    17    19   ar
     6    15     8    1
     7     8     9   ar
     8     9    10   ar
     9    10    11   ar
    10    11     7    1
    11     7     1    1
    12     1     2    1
    13     2     3    1
    14     3     4    1
    15     4    20    1
    16    20    21    1
    17    21    22    1
    18    22    23    2
    19    22    24    1
    20    24    25   ar
    21    25    26   ar
    22    26    27   ar
    23    27    28   ar
    24    28    29   ar
    25    29    30   ar
    26    30    31   ar
    27    31    32   ar
    28    26    33    1
    29    33    34    1
    30    34    35    1
    31    35    36    1
    32     4     5    1
    33     5     6    1
    34    11    12   ar
    35    12    13   ar
    36    13     8   ar
    37     6     1    1
    38    32    24   ar
    39    36    25    1
    40    32    27   ar
@<TRIPOS>MOLECULE
*****
 36 40 0 0 0
SMALL
GASTEIGER

@<TRIPOS>ATOM
      1 N         140.3694  139.2022  163.1633 N.3     1  UNL1       -0.2690
      2 C         139.1485  139.8561  162.5874 C.3     1  UNL1        0.0725
      3 C         139.2330  140.5795  161.2762 C.3     1  UNL1        0.0211
      4 C         140.5385  140.6492  160.5407 C.3     1  UNL1        0.0466
      5 C         141.7594  139.9953  161.1166 C.3     1  UNL1        0.0211
      6 C         141.6749  139.2718  162.4279 C.3     1  UNL1        0.0725
      7 C         140.2849  138.4787  164.4746 C.3     1  UNL1        0.0991
      8 C         140.3027  140.7996  168.3300 C.ar    1  UNL1       -0.0179
      9 C         139.1165  139.9560  167.9678 C.ar    1  UNL1       -0.0042
     10 C         139.1105  139.1824  166.6827 C.ar    1  UNL1       -0.0032
     11 C         140.2908  139.2523  165.7597 C.ar    1  UNL1       -0.0062
     12 C         141.4771  140.0959  166.1219 C.ar    1  UNL1       -0.0032
     13 C         141.4831  140.8695  167.4069 C.ar    1  UNL1       -0.0042
     14 C         140.0779  140.3038  170.3802 C.3     1  UNL1        0.0100
     15 C         140.3086  141.5731  169.6151 C.3     1  UNL1        0.0509
     16 C         140.5394  142.8425  168.8499 C.3     1  UNL1        0.0100
     17 C         140.3145  142.3467  170.9002 C.2     1  UNL1        0.0534
     18 O         139.1961  143.2975  171.2084 O.co2   1  UNL1       -0.5489
     19 O         141.4390  142.1695  171.8771 O.co2   1  UNL1       -0.5489
     20 C         140.6230  141.3726  159.2295 C.3     1  UNL1        0.2087
     21 O         140.5020  142.8672  159.1883 O.3     1  UNL1       -0.4453
     22 C         141.4408  143.7181  159.9910 C.2     1  UNL1        0.3458
     23 O         142.4180  144.6185  159.2950 O.2     1  UNL1       -0.2447
     24 C         141.4026  143.6686  161.4897 C.ar    1  UNL1        0.1283
     25 C         140.1947  143.8986  162.3489 C.ar    1  UNL1        0.2121
     26 N         140.6112  143.7526  163.7825 N.ar    1  UNL1       -0.2989
     27 C         142.0764  143.4324  163.8094 C.ar    1  UNL1        0.0626
     28 C         143.0283  143.1815  164.9410 C.ar    1  UNL1        0.0173
     29 C         144.4694  142.8785  164.6556 C.ar    1  UNL1        0.0015
     30 C         144.9585  142.8266  163.2386 C.ar    1  UNL1        0.0001
     31 C         144.0066  143.0776  162.1069 C.ar    1  UNL1        0.0018
     32 C         142.5655  143.3805  162.3923 C.ar    1  UNL1        0.0266
     33 C         139.6024  143.9302  164.8783 C.3     1  UNL1        0.1127
     34 C         138.1772  144.2536  164.5405 C.3     1  UNL1        0.0719
     35 C         137.7607  144.3996  163.1069 C.3     1  UNL1        0.2091
     36 O         138.7695  144.2221  162.0111 O.3     1  UNL1       -0.4611
@<TRIPOS>UNITY_ATOM_ATTR
18 1
charge -1
@<TRIPOS>BOND
     1    14    15    1
     2    15    16    1
     3    15    17    1
     4    17    18   ar
     5    17    19   ar
     6    15     8    1
     7     8     9   ar
     8     9    10   ar
     9    10    11   ar
    10    11     7    1
    11     7     1    1
    12     1     2    1
    13     2     3    1
    14     3     4    1
    15     4    20    1
    16    20    21    1
    17    21    22    1
    18    22    23    2
    19    22    24    1
    20    24    25   ar
    21    25    26   ar
    22    26    27   ar
    23    27    28   ar
    24    28    29   ar
    25    29    30   ar
    26    30    31   ar
    27    31    32   ar
    28    26    33    1
    29    33    34    1
    30    34    35    1
    31    35    36    1
    32     4     5    1
    33     5     6    1
    34    11    12   ar
    35    12    13   ar
    36    13     8   ar
    37     6     1    1
    38    32    24   ar
    39    36    25    1
    40    32    27   ar
@<TRIPOS>MOLECULE
*****
 36 40 0 0 0
SMALL
GASTEIGER

@<TRIPOS>ATOM
      1 N         143.0057  139.1337  162.9891 N.3     1  UNL1       -0.2690
      2 C         142.0482  137.9982  162.7795 C.3     1  UNL1        0.0725
      3 C         141.1124  138.0128  161.6073 C.3     1  UNL1        0.0211
      4 C         141.1341  139.1629  160.6446 C.3     1  UNL1        0.0466
      5 C         142.0915  140.2983  160.8542 C.3     1  UNL1        0.0211
      6 C         143.0273  140.2838  162.0264 C.3     1  UNL1        0.0725
      7 C         143.9415  139.1191  164.1613 C.3     1  UNL1        0.0991
      8 C         142.5531  140.6266  168.1676 C.ar    1  UNL1       -0.0179
      9 C         142.7799  141.5906  167.0410 C.ar    1  UNL1       -0.0042
     10 C         143.2426  141.0881  165.7056 C.ar    1  UNL1       -0.0032
     11 C         143.4787  139.6216  165.4967 C.ar    1  UNL1       -0.0062
     12 C         143.2519  138.6576  166.6233 C.ar    1  UNL1       -0.0032
     13 C         142.7892  139.1600  167.9587 C.ar    1  UNL1       -0.0042
     14 C         143.1695  142.1708  169.4849 C.3     1  UNL1        0.0100
     15 C         142.0903  141.1291  169.5030 C.3     1  UNL1        0.0509
     16 C         141.0112  140.0874  169.5210 C.3     1  UNL1        0.0100
     17 C         141.6276  141.6316  170.8383 C.2     1  UNL1        0.0534
     18 O         142.2087  142.8915  171.4081 O.co2   1  UNL1       -0.5489
     19 O         140.5835  140.8741  171.6040 O.co2   1  UNL1       -0.5489
     20 C         140.1983  139.1775  159.4724 C.3     1  UNL1        0.2087
     21 O         138.7894  139.6631  159.6434 O.3     1  UNL1       -0.4453
     22 C         138.5122  141.1320  159.7677 C.2     1  UNL1        0.3458
     23 O         137.9422  141.8886  158.6045 O.2     1  UNL1       -0.2447
     24 C         138.8050  141.8443  161.0548 C.ar    1  UNL1        0.1283
     25 C         139.2610  143.2668  161.1913 C.ar    1  UNL1        0.2121
     26 N         139.4310  143.5608  162.6524 N.ar    1  UNL1       -0.2989
     27 C         139.0801  142.3201  163.4188 C.ar    1  UNL1        0.0626
     28 C         139.0629  142.0192  164.8882 C.ar    1  UNL1        0.0173
     29 C         138.6588  140.6575  165.3703 C.ar    1  UNL1        0.0015
     30 C         138.2719  139.5967  164.3829 C.ar    1  UNL1        0.0001
     31 C         138.2891  139.8975  162.9135 C.ar    1  UNL1        0.0018
     32 C         138.6932  141.2592  162.4315 C.ar    1  UNL1        0.0266
     33 C         139.8834  144.9204  163.0961 C.3     1  UNL1        0.1127
     34 C         140.1657  145.9859  162.0788 C.3     1  UNL1        0.0719
     35 C         139.9957  145.6919  160.6177 C.3     1  UNL1        0.2091
     36 O         139.5433  144.3323  160.1740 O.3     1  UNL1       -0.4611
@<TRIPOS>UNITY_ATOM_ATTR
18 1
charge -1
@<TRIPOS>BOND
     1    14    15    1
     2    15    16    1
     3    15    17    1
     4    17    18   ar
     5    17    19   ar
     6    15     8    1
     7     8     9   ar
     8     9    10   ar
     9    10    11   ar
    10    11     7    1
    11     7     1    1
    12     1     2    1
    13     2     3    1
    14     3     4    1
    15     4    20    1
    16    20    21    1
    17    21    22    1
    18    22    23    2
    19    22    24    1
    20    24    25   ar
    21    25    26   ar
    22    26    27   ar
    23    27    28   ar
    24    28    29   ar
    25    29    30   ar
    26    30    31   ar
    27    31    32   ar
    28    26    33    1
    29    33    34    1
    30    34    35    1
    31    35    36    1
    32     4     5    1
    33     5     6    1
    34    11    12   ar
    35    12    13   ar
    36    13     8   ar
    37     6     1    1
    38    32    24   ar
    39    36    25    1
    40    32    27   ar
@<TRIPOS>MOLECULE
*****
 36 40 0 0 0
SMALL
GASTEIGER

@<TRIPOS>ATOM
      1 N         142.8364  138.8503  163.6630 N.3     1  UNL1       -0.2690
      2 C         141.6389  137.9606  163.5066 C.3     1  UNL1        0.0725
      3 C         140.9281  137.8845  162.1880 C.3     1  UNL1        0.0211
      4 C         141.4147  138.6982  161.0256 C.3     1  UNL1        0.0466
      5 C         142.6121  139.5879  161.1819 C.3     1  UNL1        0.0211
      6 C         143.3230  139.6639  162.5006 C.3     1  UNL1        0.0725
      7 C         143.5472  138.9263  164.9816 C.3     1  UNL1        0.0991
      8 C         141.7171  141.2168  168.3955 C.ar    1  UNL1       -0.0179
      9 C         141.7614  141.8227  167.0241 C.ar    1  UNL1       -0.0042
     10 C         142.3714  141.0593  165.8861 C.ar    1  UNL1       -0.0032
     11 C         142.9372  139.6898  166.1196 C.ar    1  UNL1       -0.0062
     12 C         142.8929  139.0839  167.4910 C.ar    1  UNL1       -0.0032
     13 C         142.2829  139.8473  168.6290 C.ar    1  UNL1       -0.0042
     14 C         142.3668  142.7831  169.6702 C.3     1  UNL1        0.0100
     15 C         141.1071  141.9803  169.5335 C.3     1  UNL1        0.0509
     16 C         139.8474  141.1776  169.3967 C.3     1  UNL1        0.0100
     17 C         140.4971  142.7438  170.6714 C.2     1  UNL1        0.0534
     18 O         139.8794  144.0886  170.4266 O.co2   1  UNL1       -0.5489
     19 O         140.5048  142.1624  172.0542 O.co2   1  UNL1       -0.5489
     20 C         140.7038  138.6221  159.7069 C.3     1  UNL1        0.2087
     21 O         139.2062  138.6916  159.6570 O.3     1  UNL1       -0.4453
     22 C         138.5204  140.0207  159.5427 C.2     1  UNL1        0.3458
     23 O         137.5285  140.2606  158.4432 O.2     1  UNL1       -0.2447
     24 C         138.8264  141.1098  160.5277 C.ar    1  UNL1        0.1283
     25 C         138.6818  141.0171  162.0178 C.ar    1  UNL1        0.2121
     26 N         139.0967  142.3329  162.6065 N.ar    1  UNL1       -0.2989
     27 C         139.4977  143.2388  161.4802 C.ar    1  UNL1        0.0626
     28 C         139.9934  144.6543  161.4585 C.ar    1  UNL1        0.0173
     29 C         140.3220  145.3140  160.1521 C.ar    1  UNL1        0.0015
     30 C         140.1549  144.5581  158.8673 C.ar    1  UNL1        0.0001
     31 C         139.6592  143.1425  158.8889 C.ar    1  UNL1        0.0018
     32 C         139.3306  142.4829  160.1954 C.ar    1  UNL1        0.0266
     33 C         139.0558  142.5361  164.0921 C.3     1  UNL1        0.1127
     34 C         138.6000  141.4235  164.9890 C.3     1  UNL1        0.0719
     35 C         138.1851  140.1077  164.4003 C.3     1  UNL1        0.2091
     36 O         138.2260  139.9045  162.9147 O.3     1  UNL1       -0.4611
@<TRIPOS>UNITY_ATOM_ATTR
18 1
charge -1
@<TRIPOS>BOND
     1    14    15    1
     2    15    16    1
     3    15    17    1
     4    17    18   ar
     5    17    19   ar
     6    15     8    1
     7     8     9   ar
     8     9    10   ar
     9    10    11   ar
    10    11     7    1
    11     7     1    1
    12     1     2    1
    13     2     3    1
    14     3     4    1
    15     4    20    1
    16    20    21    1
    17    21    22    1
    18    22    23    2
    19    22    24    1
    20    24    25   ar
    21    25    26   ar
    22    26    27   ar
    23    27    28   ar
    24    28    29   ar
    25    29    30   ar
    26    30    31   ar
    27    31    32   ar
    28    26    33    1
    29    33    34    1
    30    34    35    1
    31    35    36    1
    32     4     5    1
    33     5     6    1
    34    11    12   ar
    35    12    13   ar
    36    13     8   ar
    37     6     1    1
    38    32    24   ar
    39    36    25    1
    40    32    27   ar
