@<TRIPOS>MOLECULE
*****
 32 37 0 0 0
SMALL
GASTEIGER

@<TRIPOS>ATOM
      1 C         139.4202  144.2125  162.2962 C.ar    1  UNL1        0.0899
      2 C         138.8261  143.4315  161.1618 C.ar    1  UNL1        0.1063
      3 N         138.3954  142.0104  161.3741 N.ar    1  UNL1       -0.2291
      4 C         138.5588  141.3705  162.7209 C.ar    1  UNL1        0.1299
      5 C         139.1529  142.1515  163.8553 C.ar    1  UNL1        0.0503
      6 C         139.5836  143.5726  163.6429 C.ar    1  UNL1        0.0895
      7 N         140.1326  144.0892  164.9397 N.2     1  UNL1       -0.2490
      8 C         140.0412  142.9874  165.9536 C.2     1  UNL1        0.0634
      9 C         140.4312  142.9199  167.4004 C.3     1  UNL1        0.0718
     10 C         140.2156  141.6549  168.1770 C.2     1  UNL1       -0.0167
     11 C         139.6100  140.4573  167.5067 C.2     1  UNL1       -0.0040
     12 C         139.2201  140.5248  166.0599 C.2     1  UNL1        0.0010
     13 C         139.4357  141.7899  165.2833 C.2     1  UNL1        0.0180
     14 N         140.9831  146.2021  162.8869 N.am    1  UNL1       -0.3252
     15 C         139.8509  145.6336  162.0838 C.2     1  UNL1        0.2457
     16 O         139.1495  146.4862  161.0683 O.2     1  UNL1       -0.2703
     17 H         141.2657  147.1348  162.7475 H       1  UNL1        0.1453
     18 H         141.4434  145.6425  163.5533 H       1  UNL1        0.1453
     19 C         140.6055  141.5873  169.6239 C.2     1  UNL1        0.0213
     20 C         141.4547  142.5840  170.3556 C.2     1  UNL1        0.1191
     21 N         141.5887  142.1239  171.7770 N.2     1  UNL1       -0.1510
     22 N         140.8223  140.8428  171.9238 N.2     1  UNL1       -0.1695
     23 C         140.2146  140.5112  170.5930 C.3     1  UNL1        0.1768
     24 N         138.1280  139.9493  162.9332 N.pl3   1  UNL1       -0.3197
     25 H         137.2055  139.7513  163.2143 H       1  UNL1        0.1481
     26 C         139.1029  138.8300  162.7173 C.3     1  UNL1        0.0702
     27 C         139.7150  138.6191  161.3641 C.3     1  UNL1        0.0179
     28 C         139.5649  138.4763  159.8785 C.3     1  UNL1        0.0017
     29 C         140.9250  138.3969  160.5061 C.3     1  UNL1        0.0017
     30 C         139.4657  137.9215  163.8543 C.3     1  UNL1        0.0179
     31 C         140.4978  137.1502  164.6224 C.3     1  UNL1        0.0017
     32 C         139.0621  137.1191  165.0557 C.3     1  UNL1        0.0017
@<TRIPOS>BOND
     1    14    15   am
     2    15    16    2
     3    15     1    1
     4     1     2   ar
     5     2     3   ar
     6     3     4   ar
     7     4    24    1
     8    24    26    1
     9    26    27    1
    10    27    28    1
    11    28    29    1
    12    26    30    1
    13    30    31    1
    14    31    32    1
    15     4     5   ar
    16     5     6   ar
    17     6     7    1
    18     7     8    2
    19     8     9    1
    20     9    10    1
    21    10    19    1
    22    19    20    2
    23    20    21    1
    24    21    22    2
    25    22    23    1
    26    10    11    2
    27    11    12    1
    28    12    13    2
    29     6     1   ar
    30    13     8    1
    31    29    27    1
    32    32    30    1
    33    13     5    1
    34    23    19    1
    35    14    17    1
    36    14    18    1
    37    24    25    1
@<TRIPOS>MOLECULE
*****
 32 37 0 0 0
SMALL
GASTEIGER

@<TRIPOS>ATOM
      1 C         139.5862  144.1877  162.2348 C.ar    1  UNL1        0.0899
      2 C         139.1523  143.3867  161.0431 C.ar    1  UNL1        0.1063
      3 N         138.8010  141.9371  161.2014 N.ar    1  UNL1       -0.2291
      4 C         138.8837  141.2884  162.5514 C.ar    1  UNL1        0.1299
      5 C         139.3177  142.0893  163.7430 C.ar    1  UNL1        0.0503
      6 C         139.6689  143.5390  163.5848 C.ar    1  UNL1        0.0895
      7 N         140.0611  144.0705  164.9315 N.2     1  UNL1       -0.2490
      8 C         139.9523  142.9494  165.9220 C.2     1  UNL1        0.0634
      9 C         140.2122  142.8853  167.3979 C.3     1  UNL1        0.0718
     10 C         140.0127  141.5967  168.1393 C.2     1  UNL1       -0.0167
     11 C         139.5532  140.3722  167.4048 C.2     1  UNL1       -0.0040
     12 C         139.2933  140.4363  165.9289 C.2     1  UNL1        0.0010
     13 C         139.4928  141.7249  165.1875 C.2     1  UNL1        0.0180
     14 N         141.0278  146.2404  162.9115 N.am    1  UNL1       -0.3252
     15 C         139.9374  145.6374  162.0765 C.2     1  UNL1        0.2457
     16 O         139.1982  146.4841  161.0832 O.2     1  UNL1       -0.2703
     17 H         141.2584  147.1918  162.8076 H       1  UNL1        0.1453
     18 H         141.5130  145.6847  163.5634 H       1  UNL1        0.1453
     19 C         140.2726  141.5326  169.6153 C.2     1  UNL1        0.0213
     20 C         140.3394  142.7035  170.5505 C.2     1  UNL1        0.1191
     21 N         140.6195  142.1808  171.9283 N.2     1  UNL1       -0.1510
     22 N         140.7258  140.6869  171.8446 N.2     1  UNL1       -0.1695
     23 C         140.5114  140.2863  170.4151 C.3     1  UNL1        0.1768
     24 N         138.5325  139.8386  162.7096 N.pl3   1  UNL1       -0.3197
     25 H         137.6376  139.5809  163.0291 H       1  UNL1        0.1481
     26 C         139.5447  138.7815  162.3810 C.3     1  UNL1        0.0702
     27 C         140.0681  137.8826  163.4617 C.3     1  UNL1        0.0179
     28 C         139.8782  137.1836  164.7753 C.3     1  UNL1        0.0017
     29 C         141.1645  137.0247  164.0202 C.3     1  UNL1        0.0017
     30 C         140.0335  138.6233  160.9718 C.3     1  UNL1        0.0179
     31 C         141.1629  138.4444  160.0009 C.3     1  UNL1        0.0017
     32 C         139.7508  138.5281  159.5017 C.3     1  UNL1        0.0017
@<TRIPOS>BOND
     1    14    15   am
     2    15    16    2
     3    15     1    1
     4     1     2   ar
     5     2     3   ar
     6     3     4   ar
     7     4    24    1
     8    24    26    1
     9    26    27    1
    10    27    28    1
    11    28    29    1
    12    26    30    1
    13    30    31    1
    14    31    32    1
    15     4     5   ar
    16     5     6   ar
    17     6     7    1
    18     7     8    2
    19     8     9    1
    20     9    10    1
    21    10    19    1
    22    19    20    2
    23    20    21    1
    24    21    22    2
    25    22    23    1
    26    10    11    2
    27    11    12    1
    28    12    13    2
    29     6     1   ar
    30    13     8    1
    31    29    27    1
    32    32    30    1
    33    13     5    1
    34    23    19    1
    35    14    17    1
    36    14    18    1
    37    24    25    1
@<TRIPOS>MOLECULE
*****
 32 37 0 0 0
SMALL
GASTEIGER

@<TRIPOS>ATOM
      1 C         140.3286  144.5372  162.2256 C.ar    1  UNL1        0.0899
      2 C         141.3335  144.3406  161.1294 C.ar    1  UNL1        0.1063
      3 N         142.5926  143.5701  161.3956 N.ar    1  UNL1       -0.2291
      4 C         142.8469  142.9962  162.7579 C.ar    1  UNL1        0.1299
      5 C         141.8421  143.1927  163.8541 C.ar    1  UNL1        0.0503
      6 C         140.5829  143.9632  163.5879 C.ar    1  UNL1        0.0895
      7 N         139.7817  143.9941  164.8557 N.2     1  UNL1       -0.2490
      8 C         140.5457  143.2427  165.9053 C.2     1  UNL1        0.0634
      9 C         140.2463  142.9455  167.3447 C.3     1  UNL1        0.0718
     10 C         141.2204  142.1530  168.1652 C.2     1  UNL1       -0.0167
     11 C         142.4938  141.6577  167.5462 C.2     1  UNL1       -0.0040
     12 C         142.7931  141.9549  166.1067 C.2     1  UNL1        0.0010
     13 C         141.8191  142.7474  165.2863 C.2     1  UNL1        0.0180
     14 N         137.7508  144.7789  162.4404 N.am    1  UNL1       -0.3252
     15 C         139.0695  145.3077  161.9594 C.2     1  UNL1        0.2457
     16 O         139.1290  146.6070  161.2122 O.2     1  UNL1       -0.2703
     17 H         136.9244  145.2847  162.2657 H       1  UNL1        0.1453
     18 H         137.7117  143.9262  162.9308 H       1  UNL1        0.1453
     19 C         140.9211  141.8557  169.6047 C.2     1  UNL1        0.0213
     20 C         140.6870  142.8704  170.6843 C.2     1  UNL1        0.1191
     21 N         140.4245  142.1334  171.9641 N.2     1  UNL1       -0.1510
     22 N         140.4964  140.6631  171.6754 N.2     1  UNL1       -0.1695
     23 C         140.8033  140.4916  170.2172 C.3     1  UNL1        0.1768
     24 N         144.1062  142.2256  163.0241 N.pl3   1  UNL1       -0.3197
     25 H         144.9033  142.6891  163.3690 H       1  UNL1        0.1481
     26 C         144.1508  140.7489  162.7646 C.3     1  UNL1        0.0702
     27 C         144.3320  139.7922  163.9056 C.3     1  UNL1        0.0179
     28 C         143.7571  138.8007  164.8734 C.3     1  UNL1        0.0017
     29 C         145.2207  139.1266  164.9141 C.3     1  UNL1        0.0017
     30 C         144.0141  140.2289  161.3644 C.3     1  UNL1        0.0179
     31 C         143.9407  139.0753  160.4084 C.3     1  UNL1        0.0017
     32 C         143.8509  140.4818  159.8948 C.3     1  UNL1        0.0017
@<TRIPOS>BOND
     1    14    15   am
     2    15    16    2
     3    15     1    1
     4     1     2   ar
     5     2     3   ar
     6     3     4   ar
     7     4    24    1
     8    24    26    1
     9    26    27    1
    10    27    28    1
    11    28    29    1
    12    26    30    1
    13    30    31    1
    14    31    32    1
    15     4     5   ar
    16     5     6   ar
    17     6     7    1
    18     7     8    2
    19     8     9    1
    20     9    10    1
    21    10    19    1
    22    19    20    2
    23    20    21    1
    24    21    22    2
    25    22    23    1
    26    10    11    2
    27    11    12    1
    28    12    13    2
    29     6     1   ar
    30    13     8    1
    31    29    27    1
    32    32    30    1
    33    13     5    1
    34    23    19    1
    35    14    17    1
    36    14    18    1
    37    24    25    1
@<TRIPOS>MOLECULE
*****
 32 37 0 0 0
SMALL
GASTEIGER

@<TRIPOS>ATOM
      1 C         140.3906  144.5139  162.2630 C.ar    1  UNL1        0.0899
      2 C         141.3807  144.2873  161.1593 C.ar    1  UNL1        0.1063
      3 N         142.6255  143.4921  161.4200 N.ar    1  UNL1       -0.2291
      4 C         142.8802  142.9234  162.7845 C.ar    1  UNL1        0.1299
      5 C         141.8901  143.1500  163.8882 C.ar    1  UNL1        0.0503
      6 C         140.6453  143.9452  163.6275 C.ar    1  UNL1        0.0895
      7 N         139.8568  144.0031  164.9022 N.2     1  UNL1       -0.2490
      8 C         140.6143  143.2437  165.9508 C.2     1  UNL1        0.0634
      9 C         140.3222  142.9642  167.3952 C.3     1  UNL1        0.0718
     10 C         141.2867  142.1574  168.2130 C.2     1  UNL1       -0.0167
     11 C         142.5433  141.6301  167.5863 C.2     1  UNL1       -0.0040
     12 C         142.8355  141.9096  166.1418 C.2     1  UNL1        0.0010
     13 C         141.8710  142.7164  165.3241 C.2     1  UNL1        0.0180
     14 N         137.8148  144.7902  162.4595 N.am    1  UNL1       -0.3252
     15 C         139.1457  145.3091  162.0023 C.2     1  UNL1        0.2457
     16 O         139.2319  146.6234  161.2843 O.2     1  UNL1       -0.2703
     17 H         136.9978  145.3122  162.2883 H       1  UNL1        0.1453
     18 H         137.7582  143.9277  162.9307 H       1  UNL1        0.1453
     19 C         140.9945  141.8779  169.6575 C.2     1  UNL1        0.0213
     20 C         141.1287  140.5506  170.3434 C.2     1  UNL1        0.1191
     21 N         140.7341  140.7290  171.7795 N.2     1  UNL1       -0.1510
     22 N         140.3559  142.1665  171.9812 N.2     1  UNL1       -0.1695
     23 C         140.5169  142.8765  170.6697 C.3     1  UNL1        0.1768
     24 N         144.1251  142.1281  163.0452 N.pl3   1  UNL1       -0.3197
     25 H         144.9352  142.5771  163.3790 H       1  UNL1        0.1481
     26 C         144.1357  140.6488  162.7972 C.3     1  UNL1        0.0702
     27 C         143.9858  140.1214  161.4010 C.3     1  UNL1        0.0179
     28 C         143.7982  138.9672  160.4615 C.3     1  UNL1        0.0017
     29 C         143.9137  140.3621  159.9222 C.3     1  UNL1        0.0017
     30 C         144.2961  139.6970  163.9452 C.3     1  UNL1        0.0179
     31 C         145.1636  139.0460  164.9815 C.3     1  UNL1        0.0017
     32 C         143.7067  138.6991  164.8975 C.3     1  UNL1        0.0017
@<TRIPOS>BOND
     1    14    15   am
     2    15    16    2
     3    15     1    1
     4     1     2   ar
     5     2     3   ar
     6     3     4   ar
     7     4    24    1
     8    24    26    1
     9    26    27    1
    10    27    28    1
    11    28    29    1
    12    26    30    1
    13    30    31    1
    14    31    32    1
    15     4     5   ar
    16     5     6   ar
    17     6     7    1
    18     7     8    2
    19     8     9    1
    20     9    10    1
    21    10    19    1
    22    19    20    2
    23    20    21    1
    24    21    22    2
    25    22    23    1
    26    10    11    2
    27    11    12    1
    28    12    13    2
    29     6     1   ar
    30    13     8    1
    31    29    27    1
    32    32    30    1
    33    13     5    1
    34    23    19    1
    35    14    17    1
    36    14    18    1
    37    24    25    1
@<TRIPOS>MOLECULE
*****
 32 37 0 0 0
SMALL
GASTEIGER

@<TRIPOS>ATOM
      1 C         140.4884  141.9826  169.2836 C.ar    1  UNL1        0.0899
      2 C         140.8305  140.5740  169.6692 C.ar    1  UNL1        0.1063
      3 N         141.1102  139.5525  168.6070 N.ar    1  UNL1       -0.2291
      4 C         141.0476  139.9396  167.1591 C.ar    1  UNL1        0.1299
      5 C         140.7054  141.3482  166.7735 C.ar    1  UNL1        0.0503
      6 C         140.4258  142.3697  167.8358 C.ar    1  UNL1        0.0895
      7 N         140.1172  143.6714  167.1573 N.2     1  UNL1       -0.2490
      8 C         140.2060  143.4544  165.6757 C.2     1  UNL1        0.0634
      9 C         140.0029  144.3787  164.5120 C.3     1  UNL1        0.0718
     10 C         140.1633  143.8672  163.1111 C.2     1  UNL1       -0.0167
     11 C         140.5269  142.4314  162.8739 C.2     1  UNL1       -0.0040
     12 C         140.7300  141.5071  164.0376 C.2     1  UNL1        0.0010
     13 C         140.5696  142.0186  165.4385 C.2     1  UNL1        0.0180
     14 N         140.1790  144.4621  169.9950 N.am    1  UNL1       -0.3252
     15 C         140.2087  143.0041  170.3459 C.2     1  UNL1        0.2457
     16 O         139.9588  142.5674  171.7591 O.2     1  UNL1       -0.2703
     17 H         139.9955  145.1325  170.6922 H       1  UNL1        0.1453
     18 H         140.3431  144.7486  169.0676 H       1  UNL1        0.1453
     19 C         139.9601  144.7916  161.9472 C.2     1  UNL1        0.0213
     20 C         139.5115  146.2208  162.0243 C.2     1  UNL1        0.1191
     21 N         139.4440  146.7614  160.6267 N.2     1  UNL1       -0.1510
     22 N         139.8510  145.6663  159.6859 N.2     1  UNL1       -0.1695
     23 C         140.1700  144.4489  160.5020 C.3     1  UNL1        0.1768
     24 N         141.3273  138.9181  166.0968 N.pl3   1  UNL1       -0.3197
     25 H         142.2554  138.6588  165.8953 H       1  UNL1        0.1481
     26 C         140.1927  138.2916  165.3416 C.3     1  UNL1        0.0702
     27 C         138.8779  138.0549  166.0237 C.3     1  UNL1        0.0179
     28 C         137.7085  138.5744  166.8064 C.3     1  UNL1        0.0017
     29 C         137.7700  137.1257  166.4225 C.3     1  UNL1        0.0017
     30 C         140.3730  137.9017  163.9045 C.3     1  UNL1        0.0179
     31 C         141.2099  137.2927  162.8188 C.3     1  UNL1        0.0017
     32 C         139.8482  137.8355  162.5008 C.3     1  UNL1        0.0017
@<TRIPOS>BOND
     1    14    15   am
     2    15    16    2
     3    15     1    1
     4     1     2   ar
     5     2     3   ar
     6     3     4   ar
     7     4    24    1
     8    24    26    1
     9    26    27    1
    10    27    28    1
    11    28    29    1
    12    26    30    1
    13    30    31    1
    14    31    32    1
    15     4     5   ar
    16     5     6   ar
    17     6     7    1
    18     7     8    2
    19     8     9    1
    20     9    10    1
    21    10    19    1
    22    19    20    2
    23    20    21    1
    24    21    22    2
    25    22    23    1
    26    10    11    2
    27    11    12    1
    28    12    13    2
    29     6     1   ar
    30    13     8    1
    31    29    27    1
    32    32    30    1
    33    13     5    1
    34    23    19    1
    35    14    17    1
    36    14    18    1
    37    24    25    1
@<TRIPOS>MOLECULE
*****
 32 37 0 0 0
SMALL
GASTEIGER

@<TRIPOS>ATOM
      1 C         140.8821  141.6970  169.3970 C.ar    1  UNL1        0.0899
      2 C         141.4055  140.3359  169.7479 C.ar    1  UNL1        0.1063
      3 N         141.8441  139.3982  168.6624 N.ar    1  UNL1       -0.2291
      4 C         141.7592  139.8217  167.2259 C.ar    1  UNL1        0.1299
      5 C         141.2358  141.1829  166.8749 C.ar    1  UNL1        0.0503
      6 C         140.7972  142.1205  167.9605 C.ar    1  UNL1        0.0895
      7 N         140.3277  143.3903  167.3144 N.2     1  UNL1       -0.2490
      8 C         140.4761  143.2373  165.8296 C.2     1  UNL1        0.0634
      9 C         140.1727  144.1640  164.6899 C.3     1  UNL1        0.0718
     10 C         140.4305  143.7265  163.2785 C.2     1  UNL1       -0.0167
     11 C         140.9917  142.3622  163.0069 C.2     1  UNL1       -0.0040
     12 C         141.2952  141.4355  164.1466 C.2     1  UNL1        0.0010
     13 C         141.0373  141.8730  165.5580 C.2     1  UNL1        0.0180
     14 N         140.0608  144.0454  170.1457 N.am    1  UNL1       -0.3252
     15 C         140.4435  142.6347  170.4825 C.2     1  UNL1        0.2457
     16 O         140.3876  142.1617  171.9049 O.2     1  UNL1       -0.2703
     17 H         139.7730  144.6608  170.8582 H       1  UNL1        0.1453
     18 H         140.0975  144.3558  169.2122 H       1  UNL1        0.1453
     19 C         140.1270  144.6532  162.1387 C.2     1  UNL1        0.0213
     20 C         139.6330  146.0645  162.2573 C.2     1  UNL1        0.1191
     21 N         139.4650  146.6148  160.8721 N.2     1  UNL1       -0.1510
     22 N         139.8553  145.5436  159.8972 N.2     1  UNL1       -0.1695
     23 C         140.2644  144.3313  160.6801 C.3     1  UNL1        0.1768
     24 N         142.1978  138.8839  166.1403 N.pl3   1  UNL1       -0.3197
     25 H         143.1358  138.5884  166.0944 H       1  UNL1        0.1481
     26 C         141.2072  138.3965  165.1249 C.3     1  UNL1        0.0702
     27 C         141.6575  138.0812  163.7292 C.3     1  UNL1        0.0179
     28 C         142.7204  138.1035  162.6709 C.3     1  UNL1        0.0017
     29 C         141.3747  137.5130  162.3702 C.3     1  UNL1        0.0017
     30 C         139.7665  138.2243  165.5050 C.3     1  UNL1        0.0179
     31 C         138.5190  138.7580  166.1444 C.3     1  UNL1        0.0017
     32 C         138.5185  137.3924  165.5239 C.3     1  UNL1        0.0017
@<TRIPOS>BOND
     1    14    15   am
     2    15    16    2
     3    15     1    1
     4     1     2   ar
     5     2     3   ar
     6     3     4   ar
     7     4    24    1
     8    24    26    1
     9    26    27    1
    10    27    28    1
    11    28    29    1
    12    26    30    1
    13    30    31    1
    14    31    32    1
    15     4     5   ar
    16     5     6   ar
    17     6     7    1
    18     7     8    2
    19     8     9    1
    20     9    10    1
    21    10    19    1
    22    19    20    2
    23    20    21    1
    24    21    22    2
    25    22    23    1
    26    10    11    2
    27    11    12    1
    28    12    13    2
    29     6     1   ar
    30    13     8    1
    31    29    27    1
    32    32    30    1
    33    13     5    1
    34    23    19    1
    35    14    17    1
    36    14    18    1
    37    24    25    1
@<TRIPOS>MOLECULE
*****
 32 37 0 0 0
SMALL
GASTEIGER

@<TRIPOS>ATOM
      1 C         140.7458  138.4043  158.1126 C.ar    1  UNL1        0.0899
      2 C         142.1286  138.6377  157.5804 C.ar    1  UNL1        0.1063
      3 N         143.2701  138.8562  158.5286 N.ar    1  UNL1       -0.2291
      4 C         143.0288  138.8414  160.0090 C.ar    1  UNL1        0.1299
      5 C         141.6459  138.6081  160.5412 C.ar    1  UNL1        0.0503
      6 C         140.5044  138.3895  159.5930 C.ar    1  UNL1        0.0895
      7 N         139.2598  138.1857  160.4051 N.2     1  UNL1       -0.2490
      8 C         139.6322  138.2783  161.8552 C.2     1  UNL1        0.0634
      9 C         138.8189  138.1587  163.1098 C.3     1  UNL1        0.0718
     10 C         139.4803  138.3000  164.4486 C.2     1  UNL1       -0.0167
     11 C         140.9550  138.5611  164.5328 C.2     1  UNL1       -0.0040
     12 C         141.7683  138.6807  163.2781 C.2     1  UNL1        0.0010
     13 C         141.1069  138.5393  161.9393 C.2     1  UNL1        0.0180
     14 N         139.4049  136.8424  156.5276 N.am    1  UNL1       -0.3252
     15 C         139.6042  138.1857  157.1643 C.2     1  UNL1        0.2457
     16 O         138.6621  139.3107  156.8528 O.2     1  UNL1       -0.2703
     17 H         138.6556  136.6990  155.9052 H       1  UNL1        0.1453
     18 H         140.0232  136.1041  156.7320 H       1  UNL1        0.1453
     19 C         138.6670  138.1804  165.7034 C.2     1  UNL1        0.0213
     20 C         138.5386  139.2235  166.7736 C.2     1  UNL1        0.1191
     21 N         137.6316  138.6844  167.8398 N.2     1  UNL1       -0.1510
     22 N         137.1995  137.3081  167.4285 N.2     1  UNL1       -0.1695
     23 C         137.8395  136.9966  166.1082 C.3     1  UNL1        0.1768
     24 N         144.1704  139.0600  160.9573 N.pl3   1  UNL1       -0.3197
     25 H         144.7619  138.3103  161.1967 H       1  UNL1        0.1481
     26 C         144.4107  140.4208  161.5407 C.3     1  UNL1        0.0702
     27 C         144.9452  140.5549  162.9358 C.3     1  UNL1        0.0179
     28 C         145.1246  139.9986  164.3172 C.3     1  UNL1        0.0017
     29 C         145.6914  141.3435  163.9708 C.3     1  UNL1        0.0017
     30 C         144.1165  141.6475  160.7291 C.3     1  UNL1        0.0179
     31 C         144.3963  142.5147  159.5376 C.3     1  UNL1        0.0017
     32 C         143.3273  142.9050  160.5148 C.3     1  UNL1        0.0017
@<TRIPOS>BOND
     1    14    15   am
     2    15    16    2
     3    15     1    1
     4     1     2   ar
     5     2     3   ar
     6     3     4   ar
     7     4    24    1
     8    24    26    1
     9    26    27    1
    10    27    28    1
    11    28    29    1
    12    26    30    1
    13    30    31    1
    14    31    32    1
    15     4     5   ar
    16     5     6   ar
    17     6     7    1
    18     7     8    2
    19     8     9    1
    20     9    10    1
    21    10    19    1
    22    19    20    2
    23    20    21    1
    24    21    22    2
    25    22    23    1
    26    10    11    2
    27    11    12    1
    28    12    13    2
    29     6     1   ar
    30    13     8    1
    31    29    27    1
    32    32    30    1
    33    13     5    1
    34    23    19    1
    35    14    17    1
    36    14    18    1
    37    24    25    1
@<TRIPOS>MOLECULE
*****
 32 37 0 0 0
SMALL
GASTEIGER

@<TRIPOS>ATOM
      1 C         138.5035  139.7838  162.2654 C.ar    1  UNL1        0.0899
      2 C         138.5150  140.6902  161.0703 C.ar    1  UNL1        0.1063
      3 N         138.9558  142.1166  161.2150 N.ar    1  UNL1       -0.2291
      4 C         139.3851  142.6367  162.5549 C.ar    1  UNL1        0.1299
      5 C         139.3736  141.7304  163.7500 C.ar    1  UNL1        0.0503
      6 C         138.9328  140.3039  163.6053 C.ar    1  UNL1        0.0895
      7 N         139.0260  139.6511  164.9525 N.2     1  UNL1       -0.2490
      8 C         139.5244  140.6740  165.9299 C.2     1  UNL1        0.0634
      9 C         139.8103  140.6013  167.4006 C.3     1  UNL1        0.0718
     10 C         140.3111  141.8137  168.1280 C.2     1  UNL1       -0.0167
     11 C         140.5259  143.0988  167.3848 C.2     1  UNL1       -0.0040
     12 C         140.2399  143.1715  165.9141 C.2     1  UNL1        0.0010
     13 C         139.7392  141.9591  165.1867 C.2     1  UNL1        0.0180
     14 N         138.7834  137.2708  162.8620 N.am    1  UNL1       -0.3252
     15 C         138.0627  138.3574  162.1207 C.2     1  UNL1        0.2457
     16 O         136.9011  138.0176  161.2345 O.2     1  UNL1       -0.2703
     17 H         138.4941  136.3346  162.7670 H       1  UNL1        0.1453
     18 H         139.5458  137.4938  163.4436 H       1  UNL1        0.1453
     19 C         140.5970  141.7410  169.5988 C.2     1  UNL1        0.0213
     20 C         139.9721  142.5952  170.6617 C.2     1  UNL1        0.1191
     21 N         140.5470  142.1835  171.9846 N.2     1  UNL1       -0.1510
     22 N         141.5273  141.0749  171.7392 N.2     1  UNL1       -0.1695
     23 C         141.5581  140.8014  170.2647 C.3     1  UNL1        0.1768
     24 N         139.8259  144.0632  162.6996 N.pl3   1  UNL1       -0.3197
     25 H         139.3059  144.6849  163.2586 H       1  UNL1        0.1481
     26 C         141.0589  144.5426  161.9925 C.3     1  UNL1        0.0702
     27 C         142.3551  144.6558  162.7388 C.3     1  UNL1        0.0179
     28 C         143.1404  145.1737  163.9073 C.3     1  UNL1        0.0017
     29 C         143.8149  144.3342  162.8631 C.3     1  UNL1        0.0017
     30 C         140.9958  144.9086  160.5393 C.3     1  UNL1        0.0179
     31 C         141.6237  144.9326  159.1772 C.3     1  UNL1        0.0017
     32 C         140.2585  145.5186  159.3841 C.3     1  UNL1        0.0017
@<TRIPOS>BOND
     1    14    15   am
     2    15    16    2
     3    15     1    1
     4     1     2   ar
     5     2     3   ar
     6     3     4   ar
     7     4    24    1
     8    24    26    1
     9    26    27    1
    10    27    28    1
    11    28    29    1
    12    26    30    1
    13    30    31    1
    14    31    32    1
    15     4     5   ar
    16     5     6   ar
    17     6     7    1
    18     7     8    2
    19     8     9    1
    20     9    10    1
    21    10    19    1
    22    19    20    2
    23    20    21    1
    24    21    22    2
    25    22    23    1
    26    10    11    2
    27    11    12    1
    28    12    13    2
    29     6     1   ar
    30    13     8    1
    31    29    27    1
    32    32    30    1
    33    13     5    1
    34    23    19    1
    35    14    17    1
    36    14    18    1
    37    24    25    1
@<TRIPOS>MOLECULE
*****
 32 37 0 0 0
SMALL
GASTEIGER

@<TRIPOS>ATOM
      1 C         138.8697  139.7646  162.0844 C.ar    1  UNL1        0.0899
      2 C         139.3276  140.5324  160.8799 C.ar    1  UNL1        0.1063
      3 N         140.1569  141.7705  161.0504 N.ar    1  UNL1       -0.2291
      4 C         140.5284  142.2410  162.4255 C.ar    1  UNL1        0.1299
      5 C         140.0705  141.4732  163.6300 C.ar    1  UNL1        0.0503
      6 C         139.2412  140.2350  163.4594 C.ar    1  UNL1        0.0895
      7 N         138.9374  139.6892  164.8232 N.2     1  UNL1       -0.2490
      8 C         139.5791  140.5900  165.8365 C.2     1  UNL1        0.0634
      9 C         139.6161  140.5487  167.3355 C.3     1  UNL1        0.0718
     10 C         140.3535  141.6099  168.0970 C.2     1  UNL1       -0.0167
     11 C         141.0538  142.7126  167.3595 C.2     1  UNL1       -0.0040
     12 C         141.0167  142.7539  165.8606 C.2     1  UNL1        0.0010
     13 C         140.2794  141.6926  165.0991 C.2     1  UNL1        0.0180
     14 N         138.3940  137.2775  162.6653 N.am    1  UNL1       -0.3252
     15 C         138.0403  138.5265  161.9138 C.2     1  UNL1        0.2457
     16 O         136.8572  138.5373  160.9917 O.2     1  UNL1       -0.2703
     17 H         137.8496  136.4648  162.5534 H       1  UNL1        0.1453
     18 H         139.1705  137.2704  163.2705 H       1  UNL1        0.1453
     19 C         140.3906  141.5687  169.5960 C.2     1  UNL1        0.0213
     20 C         140.1990  142.7384  170.5152 C.2     1  UNL1        0.1191
     21 N         140.3158  142.2430  171.9263 N.2     1  UNL1       -0.1510
     22 N         140.5795  140.7671  171.8791 N.2     1  UNL1       -0.1695
     23 C         140.6257  140.3504  170.4389 C.3     1  UNL1        0.1768
     24 N         141.3578  143.4792  162.5960 N.pl3   1  UNL1       -0.3197
     25 H         140.9218  144.3603  162.6488 H       1  UNL1        0.1481
     26 C         142.8515  143.3748  162.6859 C.3     1  UNL1        0.0702
     27 C         143.6177  142.6455  161.6224 C.3     1  UNL1        0.0179
     28 C         143.7952  141.4441  160.7420 C.3     1  UNL1        0.0017
     29 C         144.7671  142.5838  160.6607 C.3     1  UNL1        0.0017
     30 C         143.5789  143.9997  163.8393 C.3     1  UNL1        0.0179
     31 C         143.9759  145.2188  164.6179 C.3     1  UNL1        0.0017
     32 C         144.4420  143.8629  165.0586 C.3     1  UNL1        0.0017
@<TRIPOS>BOND
     1    14    15   am
     2    15    16    2
     3    15     1    1
     4     1     2   ar
     5     2     3   ar
     6     3     4   ar
     7     4    24    1
     8    24    26    1
     9    26    27    1
    10    27    28    1
    11    28    29    1
    12    26    30    1
    13    30    31    1
    14    31    32    1
    15     4     5   ar
    16     5     6   ar
    17     6     7    1
    18     7     8    2
    19     8     9    1
    20     9    10    1
    21    10    19    1
    22    19    20    2
    23    20    21    1
    24    21    22    2
    25    22    23    1
    26    10    11    2
    27    11    12    1
    28    12    13    2
    29     6     1   ar
    30    13     8    1
    31    29    27    1
    32    32    30    1
    33    13     5    1
    34    23    19    1
    35    14    17    1
    36    14    18    1
    37    24    25    1
