@<TRIPOS>MOLECULE
*****
 22 24 0 0 0
SMALL
GASTEIGER

@<TRIPOS>ATOM
      1 C         141.5695  142.1094  169.0790 C.2     1  UNL1        0.0553
      2 C         141.6676  142.1889  167.5844 C.2     1  UNL1        0.0002
      3 C         140.7313  141.3891  166.7277 C.2     1  UNL1        0.0084
      4 C         139.6969  140.5099  167.3657 C.2     1  UNL1        0.1023
      5 C         138.6452  139.6126  166.7838 C.2     1  UNL1        0.3531
      6 N         137.8970  138.9786  167.9189 N.2     1  UNL1        0.0802
      7 N         138.4864  139.4841  169.2023 N.2     1  UNL1       -0.0381
      8 C         139.5988  140.4305  168.8604 C.2     1  UNL1        0.1168
      9 C         140.5351  141.2303  169.7170 C.3     1  UNL1        0.0802
     10 F         143.4420  143.7089  170.7923 F       1  UNL1       -0.1662
     11 C         142.5057  142.9092  169.9357 C.3     1  UNL1        0.4153
     12 F         141.4585  143.9723  170.0877 F       1  UNL1       -0.1662
     13 F         143.5529  141.8461  169.7836 F       1  UNL1       -0.1662
     14 N         138.3870  139.3886  165.3233 N.pl3   1  UNL1       -0.1958
     15 H         137.4811  139.5140  164.9587 H       1  UNL1        0.2986
     16 C         139.5089  138.9736  164.4183 C.ar    1  UNL1        0.1551
     17 C         140.1927  137.6551  164.6276 C.ar    1  UNL1        0.0442
     18 C         141.3147  137.2401  163.7226 C.ar    1  UNL1        0.0343
     19 C         141.7528  138.1436  162.6083 C.ar    1  UNL1        0.1386
     20 CL        142.8747  137.7286  161.7033 Cl      1  UNL1       -0.0613
     21 N         141.0689  139.4622  162.3990 N.ar    1  UNL1       -0.2289
     22 C         139.9470  139.8772  163.3040 C.ar    1  UNL1        0.1398
@<TRIPOS>BOND
     1    10    11    1
     2    11    12    1
     3    11    13    1
     4    11     1    1
     5     1     2    2
     6     2     3    1
     7     3     4    2
     8     4     5    1
     9     5    14    1
    10    14    16    1
    11    16    17   ar
    12    17    18   ar
    13    18    19   ar
    14    19    20    1
    15    19    21   ar
    16    21    22   ar
    17     5     6    2
    18     6     7    1
    19     7     8    2
    20     8     9    1
    21     9     1    1
    22     8     4    1
    23    22    16   ar
    24    14    15    1
@<TRIPOS>MOLECULE
*****
 22 24 0 0 0
SMALL
GASTEIGER

@<TRIPOS>ATOM
      1 C         139.0845  138.2927  165.7807 C.2     1  UNL1        0.0553
      2 C         140.1799  139.1980  166.2610 C.2     1  UNL1        0.0002
      3 C         141.4026  139.4084  165.4179 C.2     1  UNL1        0.0084
      4 C         141.5299  138.7137  164.0947 C.2     1  UNL1        0.1023
      5 C         142.6097  138.7274  163.0535 C.2     1  UNL1        0.3531
      6 N         142.1816  137.8307  161.9298 N.2     1  UNL1        0.0802
      7 N         140.8373  137.2627  162.2765 N.2     1  UNL1       -0.0381
      8 C         140.4345  137.8084  163.6144 C.2     1  UNL1        0.1168
      9 C         139.2119  137.5980  164.4575 C.3     1  UNL1        0.0802
     10 F         136.6392  137.8718  167.4668 F       1  UNL1       -0.1662
     11 C         137.8619  138.0823  166.6238 C.3     1  UNL1        0.4153
     12 F         137.8557  139.5397  166.9787 F       1  UNL1       -0.1662
     13 F         137.8680  136.6249  166.2689 F       1  UNL1       -0.1662
     14 N         143.8923  139.5020  163.1238 N.pl3   1  UNL1       -0.1958
     15 H         144.7540  139.0381  163.0165 H       1  UNL1        0.2986
     16 C         143.8621  140.9834  163.3575 C.ar    1  UNL1        0.1551
     17 C         144.4603  141.5578  164.6073 C.ar    1  UNL1        0.0442
     18 C         144.4300  143.0392  164.8411 C.ar    1  UNL1        0.0343
     19 C         143.8016  143.9461  163.8250 C.ar    1  UNL1        0.1386
     20 CL        143.7714  145.4275  164.0588 Cl      1  UNL1       -0.0613
     21 N         143.2034  143.3717  162.5751 N.ar    1  UNL1       -0.2289
     22 C         143.2336  141.8903  162.3414 C.ar    1  UNL1        0.1398
@<TRIPOS>BOND
     1    10    11    1
     2    11    12    1
     3    11    13    1
     4    11     1    1
     5     1     2    2
     6     2     3    1
     7     3     4    2
     8     4     5    1
     9     5    14    1
    10    14    16    1
    11    16    17   ar
    12    17    18   ar
    13    18    19   ar
    14    19    20    1
    15    19    21   ar
    16    21    22   ar
    17     5     6    2
    18     6     7    1
    19     7     8    2
    20     8     9    1
    21     9     1    1
    22     8     4    1
    23    22    16   ar
    24    14    15    1
@<TRIPOS>MOLECULE
*****
 22 24 0 0 0
SMALL
GASTEIGER

@<TRIPOS>ATOM
      1 C         141.6809  141.9444  169.1700 C.2     1  UNL1        0.0553
      2 C         141.9699  141.7223  167.7150 C.2     1  UNL1        0.0002
      3 C         141.0735  140.8391  166.8986 C.2     1  UNL1        0.0084
      4 C         139.8881  140.1781  167.5372 C.2     1  UNL1        0.1023
      5 C         138.8344  139.2616  166.9899 C.2     1  UNL1        0.3531
      6 N         137.8940  138.9173  168.1068 N.2     1  UNL1        0.0802
      7 N         138.3667  139.6210  169.3442 N.2     1  UNL1       -0.0381
      8 C         139.5991  140.4003  168.9922 C.2     1  UNL1        0.1168
      9 C         140.4955  141.2834  169.8086 C.3     1  UNL1        0.0802
     10 F         143.4737  143.7107  170.8028 F       1  UNL1       -0.1662
     11 C         142.5773  142.8276  169.9864 C.3     1  UNL1        0.4153
     12 F         143.6500  141.7800  169.9418 F       1  UNL1       -0.1662
     13 F         141.5046  143.8751  170.0310 F       1  UNL1       -0.1662
     14 N         138.7378  138.7748  165.5744 N.pl3   1  UNL1       -0.1958
     15 H         138.7833  137.8105  165.3813 H       1  UNL1        0.2986
     16 C         138.5720  139.7573  164.4531 C.ar    1  UNL1        0.1551
     17 C         137.9970  141.1157  164.7251 C.ar    1  UNL1        0.0442
     18 C         137.8312  142.0982  163.6038 C.ar    1  UNL1        0.0343
     19 C         138.2403  141.7222  162.2105 C.ar    1  UNL1        0.1386
     20 CL        138.0744  142.7047  161.0893 Cl      1  UNL1       -0.0613
     21 N         138.8153  140.3637  161.9386 N.ar    1  UNL1       -0.2289
     22 C         138.9811  139.3812  163.0599 C.ar    1  UNL1        0.1398
@<TRIPOS>BOND
     1    10    11    1
     2    11    12    1
     3    11    13    1
     4    11     1    1
     5     1     2    2
     6     2     3    1
     7     3     4    2
     8     4     5    1
     9     5    14    1
    10    14    16    1
    11    16    17   ar
    12    17    18   ar
    13    18    19   ar
    14    19    20    1
    15    19    21   ar
    16    21    22   ar
    17     5     6    2
    18     6     7    1
    19     7     8    2
    20     8     9    1
    21     9     1    1
    22     8     4    1
    23    22    16   ar
    24    14    15    1
@<TRIPOS>MOLECULE
*****
 22 24 0 0 0
SMALL
GASTEIGER

@<TRIPOS>ATOM
      1 C         140.7127  142.0837  169.0931 C.2     1  UNL1        0.0553
      2 C         140.6935  142.5023  167.6529 C.2     1  UNL1        0.0002
      3 C         141.4396  141.6997  166.6286 C.2     1  UNL1        0.0084
      4 C         142.2047  140.4785  167.0445 C.2     1  UNL1        0.1023
      5 C         143.0286  139.4965  166.2653 C.2     1  UNL1        0.3531
      6 N         143.5570  138.4710  167.2241 N.2     1  UNL1        0.0802
      7 N         143.0596  138.8191  168.5957 N.2     1  UNL1       -0.0381
      8 C         142.2239  140.0598  168.4847 C.2     1  UNL1        0.1168
      9 C         141.4779  140.8625  169.5090 C.3     1  UNL1        0.0802
     10 F         139.2207  143.6889  171.1418 F       1  UNL1       -0.1662
     11 C         139.9667  142.8863  170.1175 C.3     1  UNL1        0.4153
     12 F         139.0378  141.7310  170.3462 F       1  UNL1       -0.1662
     13 F         140.8956  144.0416  169.8887 F       1  UNL1       -0.1662
     14 N         143.2800  139.5336  164.7870 N.pl3   1  UNL1       -0.1958
     15 H         144.1613  139.8074  164.4443 H       1  UNL1        0.2986
     16 C         142.1884  139.1535  163.8309 C.ar    1  UNL1        0.1551
     17 C         141.3994  140.2201  163.1311 C.ar    1  UNL1        0.0442
     18 C         140.3079  139.8401  162.1749 C.ar    1  UNL1        0.0343
     19 C         140.0054  138.3934  161.9186 C.ar    1  UNL1        0.1386
     20 CL        138.9139  138.0135  160.9625 Cl      1  UNL1       -0.0613
     21 N         140.7945  137.3268  162.6184 N.ar    1  UNL1       -0.2289
     22 C         141.8860  137.7069  163.5746 C.ar    1  UNL1        0.1398
@<TRIPOS>BOND
     1    10    11    1
     2    11    12    1
     3    11    13    1
     4    11     1    1
     5     1     2    2
     6     2     3    1
     7     3     4    2
     8     4     5    1
     9     5    14    1
    10    14    16    1
    11    16    17   ar
    12    17    18   ar
    13    18    19   ar
    14    19    20    1
    15    19    21   ar
    16    21    22   ar
    17     5     6    2
    18     6     7    1
    19     7     8    2
    20     8     9    1
    21     9     1    1
    22     8     4    1
    23    22    16   ar
    24    14    15    1
@<TRIPOS>MOLECULE
*****
 22 24 0 0 0
SMALL
GASTEIGER

@<TRIPOS>ATOM
      1 C         142.9529  138.8827  165.5555 C.2     1  UNL1        0.0553
      2 C         142.5058  140.2585  165.9520 C.2     1  UNL1        0.0002
      3 C         141.1213  140.7244  165.6112 C.2     1  UNL1        0.0084
      4 C         140.1839  139.8146  164.8740 C.2     1  UNL1        0.1023
      5 C         138.7709  139.9959  164.4046 C.2     1  UNL1        0.3531
      6 N         138.3447  138.7322  163.7180 N.2     1  UNL1        0.0802
      7 N         139.4944  137.7698  163.7630 N.2     1  UNL1       -0.0381
      8 C         140.6311  138.4388  164.4775 C.2     1  UNL1        0.1168
      9 C         142.0156  137.9729  164.8183 C.3     1  UNL1        0.0802
     10 F         145.7219  137.9508  166.2370 F       1  UNL1       -0.1662
     11 C         144.3374  138.4168  165.8962 C.3     1  UNL1        0.4153
     12 F         144.8814  139.1740  164.7213 F       1  UNL1       -0.1662
     13 F         143.7934  137.6595  167.0712 F       1  UNL1       -0.1662
     14 N         137.9314  141.2252  164.5894 N.pl3   1  UNL1       -0.1958
     15 H         137.1263  141.1910  165.1550 H       1  UNL1        0.2986
     16 C         138.3185  142.5065  163.9124 C.ar    1  UNL1        0.1551
     17 C         138.9456  143.6143  164.7059 C.ar    1  UNL1        0.0442
     18 C         139.3328  144.8956  164.0289 C.ar    1  UNL1        0.0343
     19 C         139.0928  145.0692  162.5584 C.ar    1  UNL1        0.1386
     20 CL        139.4800  146.3506  161.8815 Cl      1  UNL1       -0.0613
     21 N         138.4657  143.9615  161.7649 N.ar    1  UNL1       -0.2289
     22 C         138.0786  142.6801  162.4419 C.ar    1  UNL1        0.1398
@<TRIPOS>BOND
     1    10    11    1
     2    11    12    1
     3    11    13    1
     4    11     1    1
     5     1     2    2
     6     2     3    1
     7     3     4    2
     8     4     5    1
     9     5    14    1
    10    14    16    1
    11    16    17   ar
    12    17    18   ar
    13    18    19   ar
    14    19    20    1
    15    19    21   ar
    16    21    22   ar
    17     5     6    2
    18     6     7    1
    19     7     8    2
    20     8     9    1
    21     9     1    1
    22     8     4    1
    23    22    16   ar
    24    14    15    1
@<TRIPOS>MOLECULE
*****
 22 24 0 0 0
SMALL
GASTEIGER

@<TRIPOS>ATOM
      1 C         140.8316  141.4857  169.0351 C.2     1  UNL1        0.0553
      2 C         141.0765  142.0980  167.6878 C.2     1  UNL1        0.0002
      3 C         140.3227  141.6011  166.4899 C.2     1  UNL1        0.0084
      4 C         139.3240  140.4920  166.6393 C.2     1  UNL1        0.1023
      5 C         138.4374  139.7993  165.6473 C.2     1  UNL1        0.3531
      6 N         137.6445  138.7590  166.3815 N.2     1  UNL1        0.0802
      7 N         138.0411  138.8086  167.8272 N.2     1  UNL1       -0.0381
      8 C         139.0791  139.8797  167.9866 C.2     1  UNL1        0.1168
      9 C         139.8329  140.3766  169.1844 C.3     1  UNL1        0.0802
     10 F         142.3393  142.4795  171.4308 F       1  UNL1       -0.1662
     11 C         141.5855  141.9826  170.2329 C.3     1  UNL1        0.4153
     12 F         141.5506  143.3754  169.6771 F       1  UNL1       -0.1662
     13 F         141.6203  140.5898  170.7887 F       1  UNL1       -0.1662
     14 N         138.3577  140.0951  164.1789 N.pl3   1  UNL1       -0.1958
     15 H         138.1506  139.3736  163.5420 H       1  UNL1        0.2986
     16 C         138.5935  141.4903  163.6810 C.ar    1  UNL1        0.1551
     17 C         137.6495  142.5921  164.0618 C.ar    1  UNL1        0.0442
     18 C         137.8853  143.9873  163.5638 C.ar    1  UNL1        0.0343
     19 C         139.0651  144.2806  162.6852 C.ar    1  UNL1        0.1386
     20 CL        139.3008  145.6759  162.1873 Cl      1  UNL1       -0.0613
     21 N         140.0091  143.1788  162.3044 N.ar    1  UNL1       -0.2289
     22 C         139.7732  141.7837  162.8023 C.ar    1  UNL1        0.1398
@<TRIPOS>BOND
     1    10    11    1
     2    11    12    1
     3    11    13    1
     4    11     1    1
     5     1     2    2
     6     2     3    1
     7     3     4    2
     8     4     5    1
     9     5    14    1
    10    14    16    1
    11    16    17   ar
    12    17    18   ar
    13    18    19   ar
    14    19    20    1
    15    19    21   ar
    16    21    22   ar
    17     5     6    2
    18     6     7    1
    19     7     8    2
    20     8     9    1
    21     9     1    1
    22     8     4    1
    23    22    16   ar
    24    14    15    1
@<TRIPOS>MOLECULE
*****
 22 24 0 0 0
SMALL
GASTEIGER

@<TRIPOS>ATOM
      1 C         138.8990  139.3527  165.8666 C.2     1  UNL1        0.0553
      2 C         138.1199  140.4519  165.2074 C.2     1  UNL1        0.0002
      3 C         138.7825  141.7629  164.9037 C.2     1  UNL1        0.0084
      4 C         140.2243  141.9747  165.2593 C.2     1  UNL1        0.1023
      5 C         141.1390  143.1505  165.0841 C.2     1  UNL1        0.3531
      6 N         142.4835  142.7779  165.6351 N.2     1  UNL1        0.0802
      7 N         142.3997  141.3719  166.1508 N.2     1  UNL1       -0.0381
      8 C         141.0034  140.8754  165.9185 C.2     1  UNL1        0.1168
      9 C         140.3408  139.5644  166.2222 C.3     1  UNL1        0.0802
     10 F         137.5738  136.7307  166.4740 F       1  UNL1       -0.1662
     11 C         138.2364  138.0417  166.1703 C.3     1  UNL1        0.4153
     12 F         139.1168  137.3634  165.1629 F       1  UNL1       -0.1662
     13 F         137.3561  138.7200  167.1777 F       1  UNL1       -0.1662
     14 N         140.7734  144.4676  164.4664 N.pl3   1  UNL1       -0.1958
     15 H         140.4162  145.1926  165.0285 H       1  UNL1        0.2986
     16 C         140.9521  144.6799  162.9923 C.ar    1  UNL1        0.1551
     17 C         139.9276  145.4534  162.2164 C.ar    1  UNL1        0.0442
     18 C         140.1063  145.6658  160.7423 C.ar    1  UNL1        0.0343
     19 C         141.3095  145.1047  160.0441 C.ar    1  UNL1        0.1386
     20 CL        141.4880  145.3172  158.5699 Cl      1  UNL1       -0.0613
     21 N         142.3340  144.3312  160.8200 N.ar    1  UNL1       -0.2289
     22 C         142.1553  144.1189  162.2941 C.ar    1  UNL1        0.1398
@<TRIPOS>BOND
     1    10    11    1
     2    11    12    1
     3    11    13    1
     4    11     1    1
     5     1     2    2
     6     2     3    1
     7     3     4    2
     8     4     5    1
     9     5    14    1
    10    14    16    1
    11    16    17   ar
    12    17    18   ar
    13    18    19   ar
    14    19    20    1
    15    19    21   ar
    16    21    22   ar
    17     5     6    2
    18     6     7    1
    19     7     8    2
    20     8     9    1
    21     9     1    1
    22     8     4    1
    23    22    16   ar
    24    14    15    1
@<TRIPOS>MOLECULE
*****
 22 24 0 0 0
SMALL
GASTEIGER

@<TRIPOS>ATOM
      1 C         141.7165  141.3193  168.0091 C.2     1  UNL1        0.0553
      2 C         141.2088  142.5831  167.3806 C.2     1  UNL1        0.0002
      3 C         140.0907  142.5277  166.3823 C.2     1  UNL1        0.0084
      4 C         139.4802  141.2084  166.0125 C.2     1  UNL1        0.1023
      5 C         138.3742  140.8440  165.0670 C.2     1  UNL1        0.3531
      6 N         138.1983  139.3550  165.1112 N.2     1  UNL1        0.0802
      7 N         139.1956  138.7991  166.0839 N.2     1  UNL1       -0.0381
      8 C         139.9879  139.9446  166.6409 C.2     1  UNL1        0.1168
      9 C         141.1060  140.0001  167.6393 C.3     1  UNL1        0.0802
     10 F         143.9528  141.4302  170.0058 F       1  UNL1       -0.1662
     11 C         142.8346  141.3748  169.0075 C.3     1  UNL1        0.4153
     12 F         142.2405  140.2070  169.7378 F       1  UNL1       -0.1662
     13 F         143.4288  142.5425  168.2772 F       1  UNL1       -0.1662
     14 N         137.5830  141.8008  164.2252 N.pl3   1  UNL1       -0.1958
     15 H         136.6002  141.8100  164.2823 H       1  UNL1        0.2986
     16 C         138.2891  142.7434  163.2963 C.ar    1  UNL1        0.1551
     17 C         139.4483  142.2602  162.4761 C.ar    1  UNL1        0.0442
     18 C         140.1545  143.2028  161.5472 C.ar    1  UNL1        0.0343
     19 C         139.7015  144.6286  161.4386 C.ar    1  UNL1        0.1386
     20 CL        140.4077  145.5712  160.5097 Cl      1  UNL1       -0.0613
     21 N         138.5423  145.1118  162.2588 N.ar    1  UNL1       -0.2289
     22 C         137.8361  144.1692  163.1877 C.ar    1  UNL1        0.1398
@<TRIPOS>BOND
     1    10    11    1
     2    11    12    1
     3    11    13    1
     4    11     1    1
     5     1     2    2
     6     2     3    1
     7     3     4    2
     8     4     5    1
     9     5    14    1
    10    14    16    1
    11    16    17   ar
    12    17    18   ar
    13    18    19   ar
    14    19    20    1
    15    19    21   ar
    16    21    22   ar
    17     5     6    2
    18     6     7    1
    19     7     8    2
    20     8     9    1
    21     9     1    1
    22     8     4    1
    23    22    16   ar
    24    14    15    1
@<TRIPOS>MOLECULE
*****
 22 24 0 0 0
SMALL
GASTEIGER

@<TRIPOS>ATOM
      1 C         140.8809  141.6863  168.2992 C.2     1  UNL1        0.0553
      2 C         141.2986  141.6235  166.8600 C.2     1  UNL1        0.0002
      3 C         140.5945  140.6959  165.9145 C.2     1  UNL1        0.0084
      4 C         139.4728  139.8312  166.4083 C.2     1  UNL1        0.1023
      5 C         138.5994  138.8276  165.7156 C.2     1  UNL1        0.3531
      6 N         137.6418  138.2701  166.7268 N.2     1  UNL1        0.0802
      7 N         137.9235  138.9292  168.0444 N.2     1  UNL1       -0.0381
      8 C         139.0552  139.8940  167.8476 C.2     1  UNL1        0.1168
      9 C         139.7592  140.8215  168.7931 C.3     1  UNL1        0.0802
     10 F         142.2890  143.5415  170.1902 F       1  UNL1       -0.1662
     11 C         141.5850  142.6139  169.2447 C.3     1  UNL1        0.4153
     12 F         140.3879  142.6014  170.1485 F       1  UNL1       -0.1662
     13 F         142.7821  142.6264  168.3410 F       1  UNL1       -0.1662
     14 N         138.6709  138.4481  164.2662 N.pl3   1  UNL1       -0.1958
     15 H         138.7554  137.5016  164.0087 H       1  UNL1        0.2986
     16 C         138.6136  139.5107  163.2090 C.ar    1  UNL1        0.1551
     17 C         139.5676  139.4700  162.0522 C.ar    1  UNL1        0.0442
     18 C         139.5103  140.5326  160.9950 C.ar    1  UNL1        0.0343
     19 C         138.4990  141.6358  161.0945 C.ar    1  UNL1        0.1386
     20 CL        138.4418  142.6984  160.0373 Cl      1  UNL1       -0.0613
     21 N         137.5449  141.6765  162.2513 N.ar    1  UNL1       -0.2289
     22 C         137.6022  140.6140  163.3085 C.ar    1  UNL1        0.1398
@<TRIPOS>BOND
     1    10    11    1
     2    11    12    1
     3    11    13    1
     4    11     1    1
     5     1     2    2
     6     2     3    1
     7     3     4    2
     8     4     5    1
     9     5    14    1
    10    14    16    1
    11    16    17   ar
    12    17    18   ar
    13    18    19   ar
    14    19    20    1
    15    19    21   ar
    16    21    22   ar
    17     5     6    2
    18     6     7    1
    19     7     8    2
    20     8     9    1
    21     9     1    1
    22     8     4    1
    23    22    16   ar
    24    14    15    1
