@<TRIPOS>MOLECULE
*****
 28 30 0 0 0
SMALL
GASTEIGER

@<TRIPOS>ATOM
      1 C         140.0727  138.0333  163.4036 C.ar    1  UNL1        0.1387
      2 C         138.8123  137.6729  164.1326 C.ar    1  UNL1        0.0371
      3 C         138.5609  138.2142  165.5087 C.ar    1  UNL1        0.0078
      4 C         139.5698  139.1159  166.1559 C.ar    1  UNL1        0.0565
      5 C         139.3183  139.6573  167.5320 C.ar    1  UNL1        0.2614
      6 O         138.0579  139.2969  168.2610 O.2     1  UNL1       -0.2670
      7 N         140.3272  140.5590  168.1792 N.ar    1  UNL1       -0.2847
      8 C         141.5877  140.9195  167.4502 C.ar    1  UNL1        0.1318
      9 C         141.8392  140.3781  166.0741 C.ar    1  UNL1        0.0261
     10 C         140.8302  139.4764  165.4269 C.ar    1  UNL1        0.0097
     11 C         141.0817  138.9350  164.0508 C.ar    1  UNL1        0.0371
     12 C         143.0996  140.7386  165.3451 C.ar    1  UNL1        0.0021
     13 C         144.1115  139.6779  165.0270 C.ar    1  UNL1        0.0001
     14 C         145.3719  140.0384  164.2979 C.ar    1  UNL1        0.0000
     15 C         145.6205  141.4595  163.8872 C.ar    1  UNL1        0.0000
     16 C         144.6086  142.5201  164.2053 C.ar    1  UNL1        0.0000
     17 C         143.3482  142.1597  164.9343 C.ar    1  UNL1        0.0001
     18 C         140.2860  138.4100  160.8419 C.3     1  UNL1        0.2525
     19 O         140.3242  137.4920  162.0275 O.3     1  UNL1       -0.4714
     20 C         142.5967  141.8212  168.0974 C.1     1  UNL1        0.1180
     21 N         143.6056  142.7230  168.7446 N.1     1  UNL1       -0.1893
     22 C         140.0758  141.1003  169.5553 C.3     1  UNL1        0.1413
     23 C         140.5763  140.3554  170.7573 C.3     1  UNL1        0.1623
     24 O         139.7565  139.2466  171.3474 O.3     1  UNL1       -0.3799
     25 H         138.9389  139.1416  170.8362 H       1  UNL1        0.2105
     26 C         141.8966  140.7195  171.3691 C.3     1  UNL1        0.1683
     27 O         142.2067  142.1524  171.6860 O.3     1  UNL1       -0.3794
     28 H         142.2640  142.6607  170.8618 H       1  UNL1        0.2105
@<TRIPOS>BOND
     1    18    19    1
     2    19     1    1
     3     1     2   ar
     4     2     3   ar
     5     3     4   ar
     6     4     5   ar
     7     5     6    2
     8     5     7   ar
     9     7    22    1
    10    22    23    1
    11    23    24    1
    12    23    26    1
    13    26    27    1
    14     7     8   ar
    15     8    20    1
    16    20    21    3
    17     8     9   ar
    18     9    12    1
    19    12    13   ar
    20    13    14   ar
    21    14    15   ar
    22    15    16   ar
    23    16    17   ar
    24     9    10   ar
    25    10    11   ar
    26    11     1   ar
    27    10     4   ar
    28    17    12   ar
    29    24    25    1
    30    27    28    1
@<TRIPOS>MOLECULE
*****
 28 30 0 0 0
SMALL
GASTEIGER

@<TRIPOS>ATOM
      1 C         140.3337  140.9169  169.5763 C.ar    1  UNL1        0.1387
      2 C         141.3766  139.9088  169.9585 C.ar    1  UNL1        0.0371
      3 C         142.2686  139.3173  168.9077 C.ar    1  UNL1        0.0078
      4 C         142.1178  139.7338  167.4746 C.ar    1  UNL1        0.0565
      5 C         143.0099  139.1422  166.4238 C.ar    1  UNL1        0.2614
      6 O         144.0527  138.1341  166.8060 O.2     1  UNL1       -0.2670
      7 N         142.8591  139.5587  164.9907 N.ar    1  UNL1       -0.2847
      8 C         141.8162  140.5669  164.6084 C.ar    1  UNL1        0.1318
      9 C         140.9241  141.1585  165.6593 C.ar    1  UNL1        0.0261
     10 C         141.0750  140.7419  167.0924 C.ar    1  UNL1        0.0097
     11 C         140.1829  141.3335  168.1433 C.ar    1  UNL1        0.0371
     12 C         139.8813  142.1666  165.2771 C.ar    1  UNL1        0.0021
     13 C         138.5391  141.7088  164.7883 C.ar    1  UNL1        0.0001
     14 C         137.4962  142.7170  164.4061 C.ar    1  UNL1        0.0000
     15 C         137.7955  144.1829  164.5126 C.ar    1  UNL1        0.0000
     16 C         139.1378  144.6407  165.0014 C.ar    1  UNL1        0.0000
     17 C         140.1806  143.6326  165.3836 C.ar    1  UNL1        0.0001
     18 C         139.5206  142.9734  170.9401 C.3     1  UNL1        0.2525
     19 O         139.4417  141.5085  170.6272 O.3     1  UNL1       -0.4714
     20 C         141.6654  140.9834  163.1754 C.1     1  UNL1        0.1180
     21 N         141.5145  141.4000  161.7422 N.1     1  UNL1       -0.1893
     22 C         143.7511  138.9672  163.9399 C.3     1  UNL1        0.1413
     23 C         144.7071  139.8443  163.1870 C.3     1  UNL1        0.1623
     24 O         144.8508  139.6953  161.7014 O.3     1  UNL1       -0.3799
     25 H         144.2594  138.9932  161.3882 H       1  UNL1        0.2105
     26 C         145.5194  140.8706  163.9199 C.3     1  UNL1        0.1683
     27 O         146.3677  141.8422  163.1542 O.3     1  UNL1       -0.3794
     28 H         147.0803  141.3633  162.7027 H       1  UNL1        0.2105
@<TRIPOS>BOND
     1    18    19    1
     2    19     1    1
     3     1     2   ar
     4     2     3   ar
     5     3     4   ar
     6     4     5   ar
     7     5     6    2
     8     5     7   ar
     9     7    22    1
    10    22    23    1
    11    23    24    1
    12    23    26    1
    13    26    27    1
    14     7     8   ar
    15     8    20    1
    16    20    21    3
    17     8     9   ar
    18     9    12    1
    19    12    13   ar
    20    13    14   ar
    21    14    15   ar
    22    15    16   ar
    23    16    17   ar
    24     9    10   ar
    25    10    11   ar
    26    11     1   ar
    27    10     4   ar
    28    17    12   ar
    29    24    25    1
    30    27    28    1
@<TRIPOS>MOLECULE
*****
 28 30 0 0 0
SMALL
GASTEIGER

@<TRIPOS>ATOM
      1 C         140.8551  142.1330  169.0895 C.ar    1  UNL1        0.1387
      2 C         139.9359  141.0182  169.4920 C.ar    1  UNL1        0.0371
      3 C         139.2822  140.1690  168.4424 C.ar    1  UNL1        0.0078
      4 C         139.5478  140.4347  166.9903 C.ar    1  UNL1        0.0565
      5 C         138.8941  139.5855  165.9407 C.ar    1  UNL1        0.2614
      6 O         137.9749  138.4707  166.3433 O.2     1  UNL1       -0.2670
      7 N         139.1596  139.8512  164.4885 N.ar    1  UNL1       -0.2847
      8 C         140.0789  140.9661  164.0859 C.ar    1  UNL1        0.1318
      9 C         140.7325  141.8153  165.1354 C.ar    1  UNL1        0.0261
     10 C         140.4670  141.5495  166.5877 C.ar    1  UNL1        0.0097
     11 C         141.1206  142.3987  167.6373 C.ar    1  UNL1        0.0371
     12 C         141.6517  142.9301  164.7329 C.ar    1  UNL1        0.0021
     13 C         141.0852  144.2476  164.2934 C.ar    1  UNL1        0.0001
     14 C         142.0045  145.3625  163.8908 C.ar    1  UNL1        0.0000
     15 C         143.4902  145.1599  163.9277 C.ar    1  UNL1        0.0000
     16 C         144.0568  143.8423  164.3672 C.ar    1  UNL1        0.0000
     17 C         143.1376  142.7275  164.7698 C.ar    1  UNL1        0.0001
     18 C         142.9960  142.9298  170.3271 C.3     1  UNL1        0.2525
     19 O         141.5087  142.9822  170.1390 O.3     1  UNL1       -0.4714
     20 C         140.3444  141.2318  162.6337 C.1     1  UNL1        0.1180
     21 N         140.6100  141.4974  161.1814 N.1     1  UNL1       -0.1893
     22 C         138.5060  139.0020  163.4389 C.3     1  UNL1        0.1413
     23 C         139.3008  137.9507  162.7226 C.3     1  UNL1        0.1623
     24 O         138.9077  137.5262  161.3387 O.3     1  UNL1       -0.3799
     25 H         138.1250  138.0254  161.0575 H       1  UNL1        0.2105
     26 C         140.4888  137.3238  163.3904 C.3     1  UNL1        0.1683
     27 O         141.6800  136.9174  162.5744 O.3     1  UNL1       -0.3794
     28 H         141.4309  136.1960  161.9757 H       1  UNL1        0.2105
@<TRIPOS>BOND
     1    18    19    1
     2    19     1    1
     3     1     2   ar
     4     2     3   ar
     5     3     4   ar
     6     4     5   ar
     7     5     6    2
     8     5     7   ar
     9     7    22    1
    10    22    23    1
    11    23    24    1
    12    23    26    1
    13    26    27    1
    14     7     8   ar
    15     8    20    1
    16    20    21    3
    17     8     9   ar
    18     9    12    1
    19    12    13   ar
    20    13    14   ar
    21    14    15   ar
    22    15    16   ar
    23    16    17   ar
    24     9    10   ar
    25    10    11   ar
    26    11     1   ar
    27    10     4   ar
    28    17    12   ar
    29    24    25    1
    30    27    28    1
@<TRIPOS>MOLECULE
*****
 28 30 0 0 0
SMALL
GASTEIGER

@<TRIPOS>ATOM
      1 C         140.5908  140.7859  169.4491 C.ar    1  UNL1        0.1387
      2 C         141.6493  139.7693  169.7588 C.ar    1  UNL1        0.0371
      3 C         142.4999  139.2123  168.6559 C.ar    1  UNL1        0.0078
      4 C         142.2918  139.6719  167.2433 C.ar    1  UNL1        0.0565
      5 C         143.1423  139.1149  166.1404 C.ar    1  UNL1        0.2614
      6 O         144.2009  138.0983  166.4501 O.2     1  UNL1       -0.2670
      7 N         142.9343  139.5744  164.7278 N.ar    1  UNL1       -0.2847
      8 C         141.8757  140.5911  164.4180 C.ar    1  UNL1        0.1318
      9 C         141.0252  141.1481  165.5209 C.ar    1  UNL1        0.0261
     10 C         141.2333  140.6885  166.9336 C.ar    1  UNL1        0.0097
     11 C         140.3828  141.2455  168.0365 C.ar    1  UNL1        0.0371
     12 C         139.9666  142.1647  165.2112 C.ar    1  UNL1        0.0021
     13 C         140.2669  143.6274  165.3539 C.ar    1  UNL1        0.0001
     14 C         139.2082  144.6440  165.0441 C.ar    1  UNL1        0.0000
     15 C         137.8495  144.1979  164.5918 C.ar    1  UNL1        0.0000
     16 C         137.5492  142.7352  164.4491 C.ar    1  UNL1        0.0000
     17 C         138.6078  141.7186  164.7588 C.ar    1  UNL1        0.0001
     18 C         139.6408  142.8270  170.7458 C.3     1  UNL1        0.2525
     19 O         139.7403  141.3429  170.5519 O.3     1  UNL1       -0.4714
     20 C         141.6677  141.0506  163.0054 C.1     1  UNL1        0.1180
     21 N         141.4596  141.5102  161.5928 N.1     1  UNL1       -0.1893
     22 C         143.7848  139.0174  163.6249 C.3     1  UNL1        0.1413
     23 C         143.1940  138.0599  162.6329 C.3     1  UNL1        0.1623
     24 O         141.8903  137.3806  162.9309 O.3     1  UNL1       -0.3799
     25 H         141.5662  137.6692  163.7984 H       1  UNL1        0.2105
     26 C         143.9070  137.7816  161.3428 C.3     1  UNL1        0.1683
     27 O         144.6245  138.8884  160.6286 O.3     1  UNL1       -0.3794
     28 H         143.9806  139.5448  160.3198 H       1  UNL1        0.2105
@<TRIPOS>BOND
     1    18    19    1
     2    19     1    1
     3     1     2   ar
     4     2     3   ar
     5     3     4   ar
     6     4     5   ar
     7     5     6    2
     8     5     7   ar
     9     7    22    1
    10    22    23    1
    11    23    24    1
    12    23    26    1
    13    26    27    1
    14     7     8   ar
    15     8    20    1
    16    20    21    3
    17     8     9   ar
    18     9    12    1
    19    12    13   ar
    20    13    14   ar
    21    14    15   ar
    22    15    16   ar
    23    16    17   ar
    24     9    10   ar
    25    10    11   ar
    26    11     1   ar
    27    10     4   ar
    28    17    12   ar
    29    24    25    1
    30    27    28    1
@<TRIPOS>MOLECULE
*****
 28 30 0 0 0
SMALL
GASTEIGER

@<TRIPOS>ATOM
      1 C         140.5110  142.0170  168.8633 C.ar    1  UNL1        0.1387
      2 C         139.6398  140.8283  169.1423 C.ar    1  UNL1        0.0371
      3 C         139.2581  139.9001  168.0276 C.ar    1  UNL1        0.0078
      4 C         139.7476  140.1605  166.6339 C.ar    1  UNL1        0.0565
      5 C         139.3659  139.2323  165.5191 C.ar    1  UNL1        0.2614
      6 O         138.4947  138.0435  165.7981 O.2     1  UNL1       -0.2670
      7 N         139.8554  139.4927  164.1254 N.ar    1  UNL1       -0.2847
      8 C         140.7266  140.6815  163.8464 C.ar    1  UNL1        0.1318
      9 C         141.1083  141.6098  164.9611 C.ar    1  UNL1        0.0261
     10 C         140.6188  141.3493  166.3549 C.ar    1  UNL1        0.0097
     11 C         141.0005  142.2775  167.4696 C.ar    1  UNL1        0.0371
     12 C         141.9795  142.7985  164.6821 C.ar    1  UNL1        0.0021
     13 C         143.4580  142.7178  164.9224 C.ar    1  UNL1        0.0001
     14 C         144.3292  143.9066  164.6434 C.ar    1  UNL1        0.0000
     15 C         143.7220  145.1761  164.1241 C.ar    1  UNL1        0.0000
     16 C         142.2435  145.2568  163.8838 C.ar    1  UNL1        0.0000
     17 C         141.3723  144.0681  164.1628 C.ar    1  UNL1        0.0001
     18 C         142.3331  143.0958  170.3688 C.3     1  UNL1        0.2525
     19 O         140.8927  142.9453  169.9781 O.3     1  UNL1       -0.4714
     20 C         141.2161  140.9420  162.4526 C.1     1  UNL1        0.1180
     21 N         141.7057  141.2024  161.0588 N.1     1  UNL1       -0.1893
     22 C         139.4737  138.5645  163.0107 C.3     1  UNL1        0.1413
     23 C         138.1988  138.7875  162.2523 C.3     1  UNL1        0.1623
     24 O         137.4447  137.6179  161.6926 O.3     1  UNL1       -0.3799
     25 H         137.9142  136.7971  161.9088 H       1  UNL1        0.2105
     26 C         137.6781  140.1801  162.0537 C.3     1  UNL1        0.1683
     27 O         136.9268  140.8644  163.1571 O.3     1  UNL1       -0.3794
     28 H         136.0904  140.3994  163.3155 H       1  UNL1        0.2105
@<TRIPOS>BOND
     1    18    19    1
     2    19     1    1
     3     1     2   ar
     4     2     3   ar
     5     3     4   ar
     6     4     5   ar
     7     5     6    2
     8     5     7   ar
     9     7    22    1
    10    22    23    1
    11    23    24    1
    12    23    26    1
    13    26    27    1
    14     7     8   ar
    15     8    20    1
    16    20    21    3
    17     8     9   ar
    18     9    12    1
    19    12    13   ar
    20    13    14   ar
    21    14    15   ar
    22    15    16   ar
    23    16    17   ar
    24     9    10   ar
    25    10    11   ar
    26    11     1   ar
    27    10     4   ar
    28    17    12   ar
    29    24    25    1
    30    27    28    1
@<TRIPOS>MOLECULE
*****
 28 30 0 0 0
SMALL
GASTEIGER

@<TRIPOS>ATOM
      1 C         144.4017  139.8998  164.7437 C.ar    1  UNL1        0.1387
      2 C         145.0543  140.4839  163.5260 C.ar    1  UNL1        0.0371
      3 C         144.4930  141.7241  162.8961 C.ar    1  UNL1        0.0078
      4 C         143.2789  142.3802  163.4840 C.ar    1  UNL1        0.0565
      5 C         142.7176  143.6204  162.8541 C.ar    1  UNL1        0.2614
      6 O         143.3702  144.2045  161.6364 O.2     1  UNL1       -0.2670
      7 N         141.5035  144.2766  163.4419 N.ar    1  UNL1       -0.2847
      8 C         140.8508  143.6925  164.6596 C.ar    1  UNL1        0.1318
      9 C         141.4122  142.4523  165.2895 C.ar    1  UNL1        0.0261
     10 C         142.6263  141.7962  164.7017 C.ar    1  UNL1        0.0097
     11 C         143.1876  140.5560  165.3315 C.ar    1  UNL1        0.0371
     12 C         140.7595  141.8682  166.5072 C.ar    1  UNL1        0.0021
     13 C         139.8720  140.6658  166.3787 C.ar    1  UNL1        0.0001
     14 C         139.2194  140.0817  167.5965 C.ar    1  UNL1        0.0000
     15 C         139.4542  140.7001  168.9427 C.ar    1  UNL1        0.0000
     16 C         140.3416  141.9025  169.0713 C.ar    1  UNL1        0.0000
     17 C         140.9943  142.4866  167.8536 C.ar    1  UNL1        0.0001
     18 C         144.1787  137.9311  166.4243 C.3     1  UNL1        0.2525
     19 O         144.9630  138.6596  165.3736 O.3     1  UNL1       -0.4714
     20 C         139.6368  144.3486  165.2475 C.1     1  UNL1        0.1180
     21 N         138.4227  145.0048  165.8354 N.1     1  UNL1       -0.1893
     22 C         140.9421  145.5168  162.8120 C.3     1  UNL1        0.1413
     23 C         139.9001  145.4070  161.7385 C.3     1  UNL1        0.1623
     24 O         138.4466  145.3620  162.1060 O.3     1  UNL1       -0.3799
     25 H         138.3551  145.4138  163.0703 H       1  UNL1        0.2105
     26 C         140.3118  145.3422  160.2976 C.3     1  UNL1        0.1683
     27 O         141.7325  145.6271  159.9099 O.3     1  UNL1       -0.3794
     28 H         141.9382  146.5566  160.0958 H       1  UNL1        0.2105
@<TRIPOS>BOND
     1    18    19    1
     2    19     1    1
     3     1     2   ar
     4     2     3   ar
     5     3     4   ar
     6     4     5   ar
     7     5     6    2
     8     5     7   ar
     9     7    22    1
    10    22    23    1
    11    23    24    1
    12    23    26    1
    13    26    27    1
    14     7     8   ar
    15     8    20    1
    16    20    21    3
    17     8     9   ar
    18     9    12    1
    19    12    13   ar
    20    13    14   ar
    21    14    15   ar
    22    15    16   ar
    23    16    17   ar
    24     9    10   ar
    25    10    11   ar
    26    11     1   ar
    27    10     4   ar
    28    17    12   ar
    29    24    25    1
    30    27    28    1
@<TRIPOS>MOLECULE
*****
 28 30 0 0 0
SMALL
GASTEIGER

@<TRIPOS>ATOM
      1 C         142.6749  140.9944  168.1856 C.ar    1  UNL1        0.1387
      2 C         143.4539  142.2088  167.7757 C.ar    1  UNL1        0.0371
      3 C         143.1140  142.9232  166.5013 C.ar    1  UNL1        0.0078
      4 C         141.9950  142.4230  165.6367 C.ar    1  UNL1        0.0565
      5 C         141.6550  143.1374  164.3623 C.ar    1  UNL1        0.2614
      6 O         142.4341  144.3518  163.9525 O.2     1  UNL1       -0.2670
      7 N         140.5360  142.6372  163.4977 N.ar    1  UNL1       -0.2847
      8 C         139.7568  141.4227  163.9075 C.ar    1  UNL1        0.1318
      9 C         140.0968  140.7083  165.1819 C.ar    1  UNL1        0.0261
     10 C         141.2159  141.2085  166.0465 C.ar    1  UNL1        0.0097
     11 C         141.5558  140.4942  167.3210 C.ar    1  UNL1        0.0371
     12 C         139.3177  139.4938  165.5918 C.ar    1  UNL1        0.0021
     13 C         139.5696  138.1782  164.9169 C.ar    1  UNL1        0.0001
     14 C         138.7905  136.9636  165.3268 C.ar    1  UNL1        0.0000
     15 C         137.7595  137.0648  166.4115 C.ar    1  UNL1        0.0000
     16 C         137.5075  138.3805  167.0864 C.ar    1  UNL1        0.0000
     17 C         138.2866  139.5950  166.6766 C.ar    1  UNL1        0.0001
     18 C         142.3238  140.6552  170.7374 C.3     1  UNL1        0.2525
     19 O         143.0148  140.2800  169.4600 O.3     1  UNL1       -0.4714
     20 C         138.6378  140.9225  163.0429 C.1     1  UNL1        0.1180
     21 N         137.5187  140.4223  162.1782 N.1     1  UNL1       -0.1893
     22 C         140.1960  143.3515  162.2233 C.3     1  UNL1        0.1413
     23 C         139.2090  144.4810  162.2369 C.3     1  UNL1        0.1623
     24 O         137.7457  144.1964  162.4035 O.3     1  UNL1       -0.3799
     25 H         137.6101  143.2397  162.4884 H       1  UNL1        0.2105
     26 C         139.6853  145.8951  162.0839 C.3     1  UNL1        0.1683
     27 O         140.8483  146.3865  162.8938 O.3     1  UNL1       -0.3794
     28 H         140.6067  146.3974  163.8331 H       1  UNL1        0.2105
@<TRIPOS>BOND
     1    18    19    1
     2    19     1    1
     3     1     2   ar
     4     2     3   ar
     5     3     4   ar
     6     4     5   ar
     7     5     6    2
     8     5     7   ar
     9     7    22    1
    10    22    23    1
    11    23    24    1
    12    23    26    1
    13    26    27    1
    14     7     8   ar
    15     8    20    1
    16    20    21    3
    17     8     9   ar
    18     9    12    1
    19    12    13   ar
    20    13    14   ar
    21    14    15   ar
    22    15    16   ar
    23    16    17   ar
    24     9    10   ar
    25    10    11   ar
    26    11     1   ar
    27    10     4   ar
    28    17    12   ar
    29    24    25    1
    30    27    28    1
@<TRIPOS>MOLECULE
*****
 28 30 0 0 0
SMALL
GASTEIGER

@<TRIPOS>ATOM
      1 C         142.6835  142.7245  169.8665 C.ar    1  UNL1        0.1387
      2 C         141.7409  141.9461  170.7358 C.ar    1  UNL1        0.0371
      3 C         140.6566  141.1179  170.1126 C.ar    1  UNL1        0.0078
      4 C         140.5148  141.0681  168.6202 C.ar    1  UNL1        0.0565
      5 C         139.4305  140.2399  167.9971 C.ar    1  UNL1        0.2614
      6 O         138.4879  139.4615  168.8663 O.2     1  UNL1       -0.2670
      7 N         139.2888  140.1900  166.5046 N.ar    1  UNL1       -0.2847
      8 C         140.2314  140.9684  165.6353 C.ar    1  UNL1        0.1318
      9 C         141.3157  141.7966  166.2584 C.ar    1  UNL1        0.0261
     10 C         141.4574  141.8464  167.7510 C.ar    1  UNL1        0.0097
     11 C         142.5417  142.6746  168.3741 C.ar    1  UNL1        0.0371
     12 C         142.2583  142.5750  165.3892 C.ar    1  UNL1        0.0021
     13 C         143.6214  142.0285  165.0837 C.ar    1  UNL1        0.0001
     14 C         144.5640  142.8069  164.2144 C.ar    1  UNL1        0.0000
     15 C         144.1434  144.1318  163.6506 C.ar    1  UNL1        0.0000
     16 C         142.7803  144.6783  163.9561 C.ar    1  UNL1        0.0000
     17 C         141.8378  143.8999  164.8254 C.ar    1  UNL1        0.0001
     18 C         145.1977  143.1093  170.3962 C.3     1  UNL1        0.2525
     19 O         143.7678  143.5527  170.4897 O.3     1  UNL1       -0.4714
     20 C         140.0896  140.9186  164.1429 C.1     1  UNL1        0.1180
     21 N         139.9479  140.8687  162.6503 N.1     1  UNL1       -0.1893
     22 C         138.2044  139.3618  165.8815 C.3     1  UNL1        0.1413
     23 C         138.3786  137.8782  165.7450 C.3     1  UNL1        0.1623
     24 O         139.3056  137.3245  164.7039 O.3     1  UNL1       -0.3799
     25 H         139.7092  138.0546  164.2091 H       1  UNL1        0.2105
     26 C         137.6256  136.9484  166.6497 C.3     1  UNL1        0.1683
     27 O         136.6511  137.4991  167.6482 O.3     1  UNL1       -0.3794
     28 H         137.1286  138.0204  168.3124 H       1  UNL1        0.2105
@<TRIPOS>BOND
     1    18    19    1
     2    19     1    1
     3     1     2   ar
     4     2     3   ar
     5     3     4   ar
     6     4     5   ar
     7     5     6    2
     8     5     7   ar
     9     7    22    1
    10    22    23    1
    11    23    24    1
    12    23    26    1
    13    26    27    1
    14     7     8   ar
    15     8    20    1
    16    20    21    3
    17     8     9   ar
    18     9    12    1
    19    12    13   ar
    20    13    14   ar
    21    14    15   ar
    22    15    16   ar
    23    16    17   ar
    24     9    10   ar
    25    10    11   ar
    26    11     1   ar
    27    10     4   ar
    28    17    12   ar
    29    24    25    1
    30    27    28    1
@<TRIPOS>MOLECULE
*****
 28 30 0 0 0
SMALL
GASTEIGER

@<TRIPOS>ATOM
      1 C         142.2919  140.9462  169.3856 C.ar    1  UNL1        0.1387
      2 C         143.3326  142.0259  169.4204 C.ar    1  UNL1        0.0371
      3 C         143.8064  142.6522  168.1425 C.ar    1  UNL1        0.0078
      4 C         143.2396  142.1990  166.8298 C.ar    1  UNL1        0.0565
      5 C         143.7135  142.8254  165.5518 C.ar    1  UNL1        0.2614
      6 O         144.7542  143.9050  165.5866 O.2     1  UNL1       -0.2670
      7 N         143.1467  142.3721  164.2391 N.ar    1  UNL1       -0.2847
      8 C         142.1059  141.2924  164.2043 C.ar    1  UNL1        0.1318
      9 C         141.6320  140.6660  165.4822 C.ar    1  UNL1        0.0261
     10 C         142.1989  141.1194  166.7950 C.ar    1  UNL1        0.0097
     11 C         141.7250  140.4930  168.0729 C.ar    1  UNL1        0.0371
     12 C         140.5913  139.5864  165.4475 C.ar    1  UNL1        0.0021
     13 C         139.1888  139.8820  165.8897 C.ar    1  UNL1        0.0001
     14 C         138.1481  138.8023  165.8549 C.ar    1  UNL1        0.0000
     15 C         138.5099  137.4270  165.3779 C.ar    1  UNL1        0.0000
     16 C         139.9124  137.1314  164.9356 C.ar    1  UNL1        0.0000
     17 C         140.9531  138.2110  164.9704 C.ar    1  UNL1        0.0001
     18 C         140.3499  140.2410  170.9608 C.3     1  UNL1        0.2525
     19 O         141.8180  140.3198  170.6635 O.3     1  UNL1       -0.4714
     20 C         141.5391  140.8392  162.8916 C.1     1  UNL1        0.1180
     21 N         140.9722  140.3859  161.5789 N.1     1  UNL1       -0.1893
     22 C         143.6205  142.9985  162.9612 C.3     1  UNL1        0.1413
     23 C         143.1515  144.3714  162.5798 C.3     1  UNL1        0.1623
     24 O         143.9654  145.5736  162.9565 O.3     1  UNL1       -0.3799
     25 H         144.7576  145.2896  163.4388 H       1  UNL1        0.2105
     26 C         141.8684  144.5418  161.8218 C.3     1  UNL1        0.1683
     27 O         141.8490  145.3352  160.5490 O.3     1  UNL1       -0.3794
     28 H         142.0468  146.2646  160.7443 H       1  UNL1        0.2105
@<TRIPOS>BOND
     1    18    19    1
     2    19     1    1
     3     1     2   ar
     4     2     3   ar
     5     3     4   ar
     6     4     5   ar
     7     5     6    2
     8     5     7   ar
     9     7    22    1
    10    22    23    1
    11    23    24    1
    12    23    26    1
    13    26    27    1
    14     7     8   ar
    15     8    20    1
    16    20    21    3
    17     8     9   ar
    18     9    12    1
    19    12    13   ar
    20    13    14   ar
    21    14    15   ar
    22    15    16   ar
    23    16    17   ar
    24     9    10   ar
    25    10    11   ar
    26    11     1   ar
    27    10     4   ar
    28    17    12   ar
    29    24    25    1
    30    27    28    1
