@<TRIPOS>MOLECULE
*****
 31 34 0 0 0
SMALL
GASTEIGER

@<TRIPOS>ATOM
      1 C         141.9750  142.1308  171.1107 C.3     1  UNL1        0.0293
      2 C         140.8930  141.3509  170.4241 C.3     1  UNL1        0.0884
      3 O         140.3424  141.3881  171.8190 O.3     1  UNL1       -0.3867
      4 C         139.6199  140.5840  170.2221 C.3     1  UNL1        0.0270
      5 C         139.2731  140.0508  168.8636 C.3     1  UNL1        0.0059
      6 C         140.1995  140.2845  167.7072 C.3     1  UNL1        0.0384
      7 C         138.9682  139.5036  167.3545 C.3     1  UNL1        0.0036
      8 C         141.4726  141.0514  167.9093 C.3     1  UNL1        0.0072
      9 C         142.1844  141.1239  166.5909 C.3     1  UNL1        0.0198
     10 C         141.3510  140.4018  165.5740 C.3     1  UNL1        0.0978
     11 C         140.1243  139.8830  166.2639 C.3     1  UNL1        0.1801
     12 C         141.8194  141.5846  169.2678 C.3     1  UNL1        0.0271
     13 H         139.4947  140.9173  171.8446 H       1  UNL1        0.2102
     14 N         141.6856  140.2289  164.1220 N.3     1  UNL1       -0.2697
     15 C         141.3731  141.3232  163.1448 C.3     1  UNL1        0.0722
     16 C         141.7077  141.1503  161.6929 C.3     1  UNL1        0.0187
     17 C         142.3548  139.8830  161.2181 C.3     1  UNL1        0.0183
     18 C         142.6673  138.7887  162.1953 C.3     1  UNL1        0.0670
     19 N         143.3144  137.5215  161.7205 N.3     1  UNL1       -0.3211
     20 C         142.3327  138.9616  163.6472 C.3     1  UNL1        0.0878
     21 H         143.4692  137.5753  160.7137 H       1  UNL1        0.1189
     22 H         142.7057  136.7301  161.9290 H       1  UNL1        0.1189
     23 O         139.0168  139.1002  165.6231 O.3     1  UNL1       -0.4778
     24 C         138.6737  139.3290  164.1809 C.ar    1  UNL1        0.1385
     25 C         138.0479  140.6240  163.7552 C.ar    1  UNL1        0.0376
     26 C         137.7048  140.8528  162.3129 C.ar    1  UNL1        0.0134
     27 C         137.9875  139.7865  161.2965 C.ar    1  UNL1        0.0686
     28 C         138.6132  138.4915  161.7222 C.ar    1  UNL1        0.0134
     29 C         138.9563  138.2627  163.1644 C.ar    1  UNL1        0.0376
     30 C         137.6443  140.0154  159.8543 C.1     1  UNL1        0.1004
     31 N         137.3012  140.2441  158.4121 N.1     1  UNL1       -0.1908
@<TRIPOS>BOND
     1     1     2    1
     2     2     3    1
     3     2     4    1
     4     4     5    1
     5     5     6    1
     6     6     7    1
     7     6     8    1
     8     8     9    1
     9     9    10    1
    10    10    14    1
    11    14    15    1
    12    15    16    1
    13    16    17    1
    14    17    18    1
    15    18    19    1
    16    18    20    1
    17    10    11    1
    18    11    23    1
    19    23    24    1
    20    24    25   ar
    21    25    26   ar
    22    26    27   ar
    23    27    30    1
    24    30    31    3
    25    27    28   ar
    26    28    29   ar
    27     8    12    1
    28    12     2    1
    29    11     6    1
    30    29    24   ar
    31    20    14    1
    32     3    13    1
    33    19    21    1
    34    19    22    1
@<TRIPOS>MOLECULE
*****
 31 34 0 0 0
SMALL
GASTEIGER

@<TRIPOS>ATOM
      1 C         140.6481  141.7567  171.3075 C.3     1  UNL1        0.0293
      2 C         141.5498  140.8627  170.5088 C.3     1  UNL1        0.0884
      3 O         142.2201  140.7793  171.8482 O.3     1  UNL1       -0.3867
      4 C         142.6843  139.9399  170.1753 C.3     1  UNL1        0.0270
      5 C         142.8353  139.4109  168.7798 C.3     1  UNL1        0.0059
      6 C         141.8519  139.8048  167.7179 C.3     1  UNL1        0.0384
      7 C         142.9300  138.8788  167.2378 C.3     1  UNL1        0.0036
      8 C         140.7175  140.7276  168.0514 C.3     1  UNL1        0.0072
      9 C         139.9098  140.9386  166.8051 C.3     1  UNL1        0.0198
     10 C         140.5451  140.1462  165.7013 C.3     1  UNL1        0.0978
     11 C         141.7454  139.4454  166.2654 C.3     1  UNL1        0.1801
     12 C         140.5664  141.2566  169.4469 C.3     1  UNL1        0.0271
     13 H         142.9949  140.1990  171.7864 H       1  UNL1        0.2102
     14 N         140.0646  140.0681  164.2825 N.3     1  UNL1       -0.2697
     15 C         140.4127  141.1574  163.3118 C.3     1  UNL1        0.0722
     16 C         139.9322  141.0794  161.8930 C.3     1  UNL1        0.0187
     17 C         139.1036  139.9122  161.4449 C.3     1  UNL1        0.0183
     18 C         138.7555  138.8229  162.4156 C.3     1  UNL1        0.0670
     19 N         137.9268  137.6555  161.9675 N.3     1  UNL1       -0.3211
     20 C         139.2360  138.9008  163.8344 C.3     1  UNL1        0.0878
     21 H         137.6900  137.7653  160.9814 H       1  UNL1        0.1189
     22 H         137.0706  137.6142  162.5202 H       1  UNL1        0.1189
     23 O         142.6759  138.5436  165.5098 O.3     1  UNL1       -0.4778
     24 C         142.9797  138.8185  164.0669 C.ar    1  UNL1        0.1385
     25 C         142.4156  137.9289  162.9990 C.ar    1  UNL1        0.0376
     26 C         142.7195  138.2039  161.5559 C.ar    1  UNL1        0.0134
     27 C         143.5874  139.3684  161.1810 C.ar    1  UNL1        0.0686
     28 C         144.1514  140.2580  162.2489 C.ar    1  UNL1        0.0134
     29 C         143.8476  139.9830  163.6918 C.ar    1  UNL1        0.0376
     30 C         143.8912  139.6433  159.7380 C.1     1  UNL1        0.1004
     31 N         144.1949  139.9182  158.2951 N.1     1  UNL1       -0.1908
@<TRIPOS>BOND
     1     1     2    1
     2     2     3    1
     3     2     4    1
     4     4     5    1
     5     5     6    1
     6     6     7    1
     7     6     8    1
     8     8     9    1
     9     9    10    1
    10    10    14    1
    11    14    15    1
    12    15    16    1
    13    16    17    1
    14    17    18    1
    15    18    19    1
    16    18    20    1
    17    10    11    1
    18    11    23    1
    19    23    24    1
    20    24    25   ar
    21    25    26   ar
    22    26    27   ar
    23    27    30    1
    24    30    31    3
    25    27    28   ar
    26    28    29   ar
    27     8    12    1
    28    12     2    1
    29    11     6    1
    30    29    24   ar
    31    20    14    1
    32     3    13    1
    33    19    21    1
    34    19    22    1
@<TRIPOS>MOLECULE
*****
 31 34 0 0 0
SMALL
GASTEIGER

@<TRIPOS>ATOM
      1 C         139.9084  142.2344  171.0468 C.3     1  UNL1        0.0293
      2 C         140.7697  141.1762  170.4235 C.3     1  UNL1        0.0884
      3 O         140.6857  140.6509  171.8261 O.3     1  UNL1       -0.3867
      4 C         141.6018  139.9356  170.2873 C.3     1  UNL1        0.0270
      5 C         142.2188  139.5878  168.9651 C.3     1  UNL1        0.0059
      6 C         142.0038  140.4805  167.7791 C.3     1  UNL1        0.0384
      7 C         142.8556  139.2796  167.4922 C.3     1  UNL1        0.0036
      8 C         141.1718  141.7211  167.9153 C.3     1  UNL1        0.0072
      9 C         141.1353  142.4038  166.5800 C.3     1  UNL1        0.0198
     10 C         141.9449  141.5850  165.6187 C.3     1  UNL1        0.0978
     11 C         142.4817  140.3964  166.3597 C.3     1  UNL1        0.1801
     12 C         140.5547  142.0689  169.2375 C.3     1  UNL1        0.0271
     13 H         141.1917  139.8261  171.8933 H       1  UNL1        0.2102
     14 N         142.1770  141.8997  164.1705 N.3     1  UNL1       -0.2697
     15 C         141.1805  141.4612  163.1387 C.3     1  UNL1        0.0722
     16 C         141.4125  141.7758  161.6905 C.3     1  UNL1        0.0187
     17 C         142.6412  142.5288  161.2742 C.3     1  UNL1        0.0183
     18 C         143.6377  142.9672  162.3060 C.3     1  UNL1        0.0670
     19 N         144.8664  143.7203  161.8896 N.3     1  UNL1       -0.3211
     20 C         143.4057  142.6527  163.7541 C.3     1  UNL1        0.0878
     21 H         144.8619  143.8451  160.8773 H       1  UNL1        0.1189
     22 H         145.6965  143.1947  162.1637 H       1  UNL1        0.1189
     23 O         143.3447  139.3138  165.7827 O.3     1  UNL1       -0.4778
     24 C         143.2079  138.9356  164.3377 C.ar    1  UNL1        0.1385
     25 C         144.2828  139.3079  163.3599 C.ar    1  UNL1        0.0376
     26 C         144.1458  138.9297  161.9148 C.ar    1  UNL1        0.0134
     27 C         142.9340  138.1793  161.4475 C.ar    1  UNL1        0.0686
     28 C         141.8591  137.8070  162.4252 C.ar    1  UNL1        0.0134
     29 C         141.9961  138.1852  163.8703 C.ar    1  UNL1        0.0376
     30 C         142.7972  137.8012  160.0024 C.1     1  UNL1        0.1004
     31 N         142.6603  137.4231  158.5573 N.1     1  UNL1       -0.1908
@<TRIPOS>BOND
     1     1     2    1
     2     2     3    1
     3     2     4    1
     4     4     5    1
     5     5     6    1
     6     6     7    1
     7     6     8    1
     8     8     9    1
     9     9    10    1
    10    10    14    1
    11    14    15    1
    12    15    16    1
    13    16    17    1
    14    17    18    1
    15    18    19    1
    16    18    20    1
    17    10    11    1
    18    11    23    1
    19    23    24    1
    20    24    25   ar
    21    25    26   ar
    22    26    27   ar
    23    27    30    1
    24    30    31    3
    25    27    28   ar
    26    28    29   ar
    27     8    12    1
    28    12     2    1
    29    11     6    1
    30    29    24   ar
    31    20    14    1
    32     3    13    1
    33    19    21    1
    34    19    22    1
@<TRIPOS>MOLECULE
*****
 31 34 0 0 0
SMALL
GASTEIGER

@<TRIPOS>ATOM
      1 C         141.0684  141.2900  171.4841 C.3     1  UNL1        0.0293
      2 C         141.8036  141.7573  170.2629 C.3     1  UNL1        0.0884
      3 O         142.5901  142.4640  171.3268 O.3     1  UNL1       -0.3867
      4 C         142.8118  142.4700  169.4112 C.3     1  UNL1        0.0270
      5 C         142.7783  142.3138  167.9197 C.3     1  UNL1        0.0059
      6 C         141.7364  141.4448  167.2799 C.3     1  UNL1        0.0384
      7 C         142.6743  142.0917  166.3043 C.3     1  UNL1        0.0036
      8 C         140.7281  140.7321  168.1316 C.3     1  UNL1        0.0072
      9 C         139.8260  139.9488  167.2245 C.3     1  UNL1        0.0198
     10 C         140.2767  140.1775  165.8123 C.3     1  UNL1        0.0978
     11 C         141.4574  141.1021  165.8465 C.3     1  UNL1        0.1801
     12 C         140.7617  140.8884  169.6231 C.3     1  UNL1        0.0271
     13 H         143.2994  142.9817  170.9145 H       1  UNL1        0.2102
     14 N         139.6558  139.5856  164.5817 N.3     1  UNL1       -0.2697
     15 C         140.0247  138.1975  164.1491 C.3     1  UNL1        0.0722
     16 C         139.4039  137.6056  162.9186 C.3     1  UNL1        0.0187
     17 C         138.4141  138.4017  162.1208 C.3     1  UNL1        0.0183
     18 C         138.0452  139.7897  162.5535 C.3     1  UNL1        0.0670
     19 N         137.0553  140.5858  161.7556 N.3     1  UNL1       -0.3211
     20 C         138.6660  140.3817  163.7840 C.3     1  UNL1        0.0878
     21 H         136.7377  140.0334  160.9592 H       1  UNL1        0.1189
     22 H         137.4981  141.4416  161.4209 H       1  UNL1        0.1189
     23 O         142.2245  141.5970  164.6563 O.3     1  UNL1       -0.4778
     24 C         142.3762  140.7242  163.4459 C.ar    1  UNL1        0.1385
     25 C         143.2028  139.4748  163.5208 C.ar    1  UNL1        0.0376
     26 C         143.3544  138.6021  162.3102 C.ar    1  UNL1        0.0134
     27 C         142.6794  138.9788  161.0248 C.ar    1  UNL1        0.0686
     28 C         141.8527  140.2282  160.9498 C.ar    1  UNL1        0.0134
     29 C         141.7011  141.1009  162.1603 C.ar    1  UNL1        0.0376
     30 C         142.8310  138.1060  159.8143 C.1     1  UNL1        0.1004
     31 N         142.9826  137.2332  158.6039 N.1     1  UNL1       -0.1908
@<TRIPOS>BOND
     1     1     2    1
     2     2     3    1
     3     2     4    1
     4     4     5    1
     5     5     6    1
     6     6     7    1
     7     6     8    1
     8     8     9    1
     9     9    10    1
    10    10    14    1
    11    14    15    1
    12    15    16    1
    13    16    17    1
    14    17    18    1
    15    18    19    1
    16    18    20    1
    17    10    11    1
    18    11    23    1
    19    23    24    1
    20    24    25   ar
    21    25    26   ar
    22    26    27   ar
    23    27    30    1
    24    30    31    3
    25    27    28   ar
    26    28    29   ar
    27     8    12    1
    28    12     2    1
    29    11     6    1
    30    29    24   ar
    31    20    14    1
    32     3    13    1
    33    19    21    1
    34    19    22    1
@<TRIPOS>MOLECULE
*****
 31 34 0 0 0
SMALL
GASTEIGER

@<TRIPOS>ATOM
      1 C         140.9268  141.6089  171.5474 C.3     1  UNL1        0.0293
      2 C         141.7907  141.9082  170.3582 C.3     1  UNL1        0.0884
      3 O         142.5918  142.5754  171.4367 O.3     1  UNL1       -0.3867
      4 C         142.9328  142.4392  169.5436 C.3     1  UNL1        0.0270
      5 C         142.9738  142.1990  168.0635 C.3     1  UNL1        0.0059
      6 C         141.8727  141.4278  167.3980 C.3     1  UNL1        0.0384
      7 C         142.9446  141.8949  166.4584 C.3     1  UNL1        0.0036
      8 C         140.7306  140.8969  168.2127 C.3     1  UNL1        0.0072
      9 C         139.7955  140.1774  167.2863 C.3     1  UNL1        0.0198
     10 C         140.3598  140.2638  165.8992 C.3     1  UNL1        0.0978
     11 C         141.6435  141.0366  165.9682 C.3     1  UNL1        0.1801
     12 C         140.6896  141.1370  169.6927 C.3     1  UNL1        0.0271
     13 H         143.3854  142.9763  171.0489 H       1  UNL1        0.2102
     14 N         139.7477  139.6799  164.6604 N.3     1  UNL1       -0.2697
     15 C         140.1928  138.3355  164.1660 C.3     1  UNL1        0.0722
     16 C         139.5808  137.7516  162.9273 C.3     1  UNL1        0.0187
     17 C         138.5237  138.5121  162.1829 C.3     1  UNL1        0.0183
     18 C         138.0786  139.8565  162.6773 C.3     1  UNL1        0.0670
     19 N         137.0214  140.6170  161.9329 N.3     1  UNL1       -0.3211
     20 C         138.6906  140.4404  163.9160 C.3     1  UNL1        0.0878
     21 H         136.7200  140.0756  161.1227 H       1  UNL1        0.1189
     22 H         137.4011  141.5112  161.6222 H       1  UNL1        0.1189
     23 O         142.5406  141.3612  164.8107 O.3     1  UNL1       -0.4778
     24 C         142.0260  142.1923  163.6730 C.ar    1  UNL1        0.1385
     25 C         141.7173  143.6448  163.8848 C.ar    1  UNL1        0.0376
     26 C         141.2027  144.4758  162.7469 C.ar    1  UNL1        0.0134
     27 C         140.9968  143.8543  161.3973 C.ar    1  UNL1        0.0686
     28 C         141.3055  142.4018  161.1855 C.ar    1  UNL1        0.0134
     29 C         141.8201  141.5708  162.3233 C.ar    1  UNL1        0.0376
     30 C         140.4822  144.6854  160.2596 C.1     1  UNL1        0.1004
     31 N         139.9676  145.5164  159.1218 N.1     1  UNL1       -0.1908
@<TRIPOS>BOND
     1     1     2    1
     2     2     3    1
     3     2     4    1
     4     4     5    1
     5     5     6    1
     6     6     7    1
     7     6     8    1
     8     8     9    1
     9     9    10    1
    10    10    14    1
    11    14    15    1
    12    15    16    1
    13    16    17    1
    14    17    18    1
    15    18    19    1
    16    18    20    1
    17    10    11    1
    18    11    23    1
    19    23    24    1
    20    24    25   ar
    21    25    26   ar
    22    26    27   ar
    23    27    30    1
    24    30    31    3
    25    27    28   ar
    26    28    29   ar
    27     8    12    1
    28    12     2    1
    29    11     6    1
    30    29    24   ar
    31    20    14    1
    32     3    13    1
    33    19    21    1
    34    19    22    1
@<TRIPOS>MOLECULE
*****
 31 34 0 0 0
SMALL
GASTEIGER

@<TRIPOS>ATOM
      1 C         141.6625  142.2779  171.3017 C.3     1  UNL1        0.0293
      2 C         140.8103  141.2895  170.5621 C.3     1  UNL1        0.0884
      3 O         140.6869  140.7484  171.9557 O.3     1  UNL1       -0.3867
      4 C         139.9153  140.1133  170.3065 C.3     1  UNL1        0.0270
      5 C         139.4396  139.8214  168.9142 C.3     1  UNL1        0.0059
      6 C         139.8590  140.7057  167.7775 C.3     1  UNL1        0.0384
      7 C         138.9655  139.5717  167.3706 C.3     1  UNL1        0.0036
      8 C         140.7540  141.8819  168.0331 C.3     1  UNL1        0.0072
      9 C         140.9997  142.5708  166.7234 C.3     1  UNL1        0.0198
     10 C         140.2565  141.8202  165.6584 C.3     1  UNL1        0.0978
     11 C         139.5515  140.6676  166.3099 C.3     1  UNL1        0.1801
     12 C         141.2297  142.1739  169.4254 C.3     1  UNL1        0.0271
     13 H         140.1195  139.9618  171.9480 H       1  UNL1        0.2102
     14 N         140.2240  142.1623  164.1982 N.3     1  UNL1       -0.2697
     15 C         141.4532  141.9808  163.3579 C.3     1  UNL1        0.0722
     16 C         141.4208  142.3228  161.8978 C.3     1  UNL1        0.0187
     17 C         140.1591  142.8463  161.2780 C.3     1  UNL1        0.0183
     18 C         138.9299  143.0277  162.1184 C.3     1  UNL1        0.0670
     19 N         137.6682  143.5511  161.4985 N.3     1  UNL1       -0.3211
     20 C         138.9623  142.6857  163.5784 C.3     1  UNL1        0.0878
     21 H         137.8252  143.7292  160.5065 H       1  UNL1        0.1189
     22 H         137.3967  144.4188  161.9609 H       1  UNL1        0.1189
     23 O         138.6902  139.6546  165.6156 O.3     1  UNL1       -0.4778
     24 C         138.9191  139.3427  164.1663 C.ar    1  UNL1        0.1385
     25 C         140.1986  138.6913  163.7322 C.ar    1  UNL1        0.0376
     26 C         140.4274  138.3794  162.2829 C.ar    1  UNL1        0.0134
     27 C         139.3766  138.7189  161.2677 C.ar    1  UNL1        0.0686
     28 C         138.0970  139.3703  161.7018 C.ar    1  UNL1        0.0134
     29 C         137.8683  139.6822  163.1511 C.ar    1  UNL1        0.0376
     30 C         139.6054  138.4070  159.8185 C.1     1  UNL1        0.1004
     31 N         139.8341  138.0951  158.3692 N.1     1  UNL1       -0.1908
@<TRIPOS>BOND
     1     1     2    1
     2     2     3    1
     3     2     4    1
     4     4     5    1
     5     5     6    1
     6     6     7    1
     7     6     8    1
     8     8     9    1
     9     9    10    1
    10    10    14    1
    11    14    15    1
    12    15    16    1
    13    16    17    1
    14    17    18    1
    15    18    19    1
    16    18    20    1
    17    10    11    1
    18    11    23    1
    19    23    24    1
    20    24    25   ar
    21    25    26   ar
    22    26    27   ar
    23    27    30    1
    24    30    31    3
    25    27    28   ar
    26    28    29   ar
    27     8    12    1
    28    12     2    1
    29    11     6    1
    30    29    24   ar
    31    20    14    1
    32     3    13    1
    33    19    21    1
    34    19    22    1
@<TRIPOS>MOLECULE
*****
 31 34 0 0 0
SMALL
GASTEIGER

@<TRIPOS>ATOM
      1 C         140.7945  140.7465  171.3286 C.3     1  UNL1        0.0293
      2 C         140.6002  141.6966  170.1842 C.3     1  UNL1        0.0884
      3 O         140.3054  142.6119  171.3355 O.3     1  UNL1       -0.3867
      4 C         140.3035  142.9645  169.4396 C.3     1  UNL1        0.0270
      5 C         140.3690  142.9872  167.9412 C.3     1  UNL1        0.0059
      6 C         140.7313  141.7420  167.1874 C.3     1  UNL1        0.0384
      7 C         140.4620  142.9292  166.3110 C.3     1  UNL1        0.0036
      8 C         141.0280  140.4741  167.9320 C.3     1  UNL1        0.0072
      9 C         141.3546  139.4110  166.9254 C.3     1  UNL1        0.0198
     10 C         141.2597  140.0219  165.5587 C.3     1  UNL1        0.0978
     11 C         140.8745  141.4625  165.7207 C.3     1  UNL1        0.1801
     12 C         140.9624  140.4514  169.4304 C.3     1  UNL1        0.0271
     13 H         140.0898  143.4957  170.9989 H       1  UNL1        0.2102
     14 N         141.5067  139.3161  164.2583 N.3     1  UNL1       -0.2697
     15 C         140.4057  138.5294  163.6111 C.3     1  UNL1        0.0722
     16 C         140.6527  137.8236  162.3108 C.3     1  UNL1        0.0187
     17 C         142.0006  137.9045  161.6577 C.3     1  UNL1        0.0183
     18 C         143.1016  138.6912  162.3050 C.3     1  UNL1        0.0670
     19 N         144.4495  138.7721  161.6518 N.3     1  UNL1       -0.3211
     20 C         142.8546  139.3970  163.6053 C.3     1  UNL1        0.0878
     21 H         144.4389  138.2380  160.7829 H       1  UNL1        0.1189
     22 H         145.1551  138.3865  162.2794 H       1  UNL1        0.1189
     23 O         140.6686  142.4503  164.6107 O.3     1  UNL1       -0.4778
     24 C         140.0224  142.0145  163.3292 C.ar    1  UNL1        0.1385
     25 C         138.5748  141.6217  163.3148 C.ar    1  UNL1        0.0376
     26 C         137.9285  141.1859  162.0332 C.ar    1  UNL1        0.0134
     27 C         138.7299  141.1430  160.7659 C.ar    1  UNL1        0.0686
     28 C         140.1775  141.5358  160.7802 C.ar    1  UNL1        0.0134
     29 C         140.8237  141.9716  162.0618 C.ar    1  UNL1        0.0376
     30 C         138.0836  140.7073  159.4843 C.1     1  UNL1        0.1004
     31 N         137.4374  140.2714  158.2028 N.1     1  UNL1       -0.1908
@<TRIPOS>BOND
     1     1     2    1
     2     2     3    1
     3     2     4    1
     4     4     5    1
     5     5     6    1
     6     6     7    1
     7     6     8    1
     8     8     9    1
     9     9    10    1
    10    10    14    1
    11    14    15    1
    12    15    16    1
    13    16    17    1
    14    17    18    1
    15    18    19    1
    16    18    20    1
    17    10    11    1
    18    11    23    1
    19    23    24    1
    20    24    25   ar
    21    25    26   ar
    22    26    27   ar
    23    27    30    1
    24    30    31    3
    25    27    28   ar
    26    28    29   ar
    27     8    12    1
    28    12     2    1
    29    11     6    1
    30    29    24   ar
    31    20    14    1
    32     3    13    1
    33    19    21    1
    34    19    22    1
@<TRIPOS>MOLECULE
*****
 31 34 0 0 0
SMALL
GASTEIGER

@<TRIPOS>ATOM
      1 C         141.4506  140.6642  171.5203 C.3     1  UNL1        0.0293
      2 C         140.6447  140.3995  170.2831 C.3     1  UNL1        0.0884
      3 O         139.7973  139.6959  171.3014 O.3     1  UNL1       -0.3867
      4 C         139.5446  139.8906  169.3996 C.3     1  UNL1        0.0270
      5 C         139.5717  140.1771  167.9275 C.3     1  UNL1        0.0059
      6 C         140.6990  140.9725  167.3388 C.3     1  UNL1        0.0384
      7 C         139.6745  140.5316  166.3358 C.3     1  UNL1        0.0036
      8 C         141.7991  141.4815  168.2223 C.3     1  UNL1        0.0072
      9 C         142.7730  142.2329  167.3638 C.3     1  UNL1        0.0198
     10 C         142.2747  142.1883  165.9497 C.3     1  UNL1        0.0978
     11 C         140.9929  141.4093  165.9343 C.3     1  UNL1        0.1801
     12 C         141.7719  141.1950  169.6945 C.3     1  UNL1        0.0271
     13 H         139.0246  139.3048  170.8645 H       1  UNL1        0.2102
     14 N         142.9412  142.8130  164.7599 N.3     1  UNL1       -0.2697
     15 C         142.4663  144.1392  164.2447 C.3     1  UNL1        0.0722
     16 C         143.1327  144.7639  163.0549 C.3     1  UNL1        0.0187
     17 C         144.2741  144.0623  162.3804 C.3     1  UNL1        0.0183
     18 C         144.7490  142.7361  162.8956 C.3     1  UNL1        0.0670
     19 N         145.8904  142.0345  162.2210 N.3     1  UNL1       -0.3211
     20 C         144.0825  142.1114  164.0854 C.3     1  UNL1        0.0878
     21 H         146.2200  142.5976  161.4370 H       1  UNL1        0.1189
     22 H         145.5768  141.1261  161.8790 H       1  UNL1        0.1189
     23 O         140.1526  141.1183  164.7264 O.3     1  UNL1       -0.4778
     24 C         140.8036  140.6851  163.4464 C.ar    1  UNL1        0.1385
     25 C         140.6894  141.5409  162.2197 C.ar    1  UNL1        0.0376
     26 C         141.3406  141.1077  160.9397 C.ar    1  UNL1        0.0134
     27 C         142.1059  139.8187  160.8863 C.ar    1  UNL1        0.0686
     28 C         142.2201  138.9629  162.1130 C.ar    1  UNL1        0.0134
     29 C         141.5690  139.3962  163.3929 C.ar    1  UNL1        0.0376
     30 C         142.7570  139.3855  159.6064 C.1     1  UNL1        0.1004
     31 N         143.4080  138.9524  158.3263 N.1     1  UNL1       -0.1908
@<TRIPOS>BOND
     1     1     2    1
     2     2     3    1
     3     2     4    1
     4     4     5    1
     5     5     6    1
     6     6     7    1
     7     6     8    1
     8     8     9    1
     9     9    10    1
    10    10    14    1
    11    14    15    1
    12    15    16    1
    13    16    17    1
    14    17    18    1
    15    18    19    1
    16    18    20    1
    17    10    11    1
    18    11    23    1
    19    23    24    1
    20    24    25   ar
    21    25    26   ar
    22    26    27   ar
    23    27    30    1
    24    30    31    3
    25    27    28   ar
    26    28    29   ar
    27     8    12    1
    28    12     2    1
    29    11     6    1
    30    29    24   ar
    31    20    14    1
    32     3    13    1
    33    19    21    1
    34    19    22    1
@<TRIPOS>MOLECULE
*****
 31 34 0 0 0
SMALL
GASTEIGER

@<TRIPOS>ATOM
      1 C         142.9268  139.5008  170.7076 C.3     1  UNL1        0.0293
      2 C         142.2271  140.6904  170.1199 C.3     1  UNL1        0.0884
      3 O         142.4381  141.1789  171.5224 O.3     1  UNL1       -0.3867
      4 C         141.6007  142.0496  170.0194 C.3     1  UNL1        0.0270
      5 C         141.0063  142.5073  168.7204 C.3     1  UNL1        0.0059
      6 C         141.0382  141.6058  167.5221 C.3     1  UNL1        0.0384
      7 C         140.3813  142.9307  167.2713 C.3     1  UNL1        0.0036
      8 C         141.6646  140.2466  167.6226 C.3     1  UNL1        0.0072
      9 C         141.5494  139.5827  166.2824 C.3     1  UNL1        0.0198
     10 C         140.8518  140.5317  165.3536 C.3     1  UNL1        0.0978
     11 C         140.5359  141.7820  166.1197 C.3     1  UNL1        0.1801
     12 C         142.2591  139.7889  168.9216 C.3     1  UNL1        0.0271
     13 H         142.0731  142.0731  171.6117 H       1  UNL1        0.2102
     14 N         140.5271  140.2754  163.9117 N.3     1  UNL1       -0.2697
     15 C         141.5823  140.4581  162.8614 C.3     1  UNL1        0.0722
     16 C         141.2576  140.2018  161.4195 C.3     1  UNL1        0.0187
     17 C         139.8777  139.7629  161.0281 C.3     1  UNL1        0.0183
     18 C         138.8225  139.5803  162.0784 C.3     1  UNL1        0.0670
     19 N         137.4426  139.1413  161.6869 N.3     1  UNL1       -0.3211
     20 C         139.1472  139.8365  163.5202 C.3     1  UNL1        0.0878
     21 H         137.4002  139.0146  160.6757 H       1  UNL1        0.1189
     22 H         136.7670  139.8515  161.9691 H       1  UNL1        0.1189
     23 O         139.8398  142.9955  165.5786 O.3     1  UNL1       -0.4778
     24 C         140.1973  143.5219  164.2203 C.ar    1  UNL1        0.1385
     25 C         141.5641  144.0871  163.9708 C.ar    1  UNL1        0.0376
     26 C         141.9216  144.6136  162.6124 C.ar    1  UNL1        0.0134
     27 C         140.9121  144.5749  161.5035 C.ar    1  UNL1        0.0686
     28 C         139.5452  144.0097  161.7531 C.ar    1  UNL1        0.0134
     29 C         139.1878  143.4833  163.1114 C.ar    1  UNL1        0.0376
     30 C         141.2696  145.1013  160.1453 C.1     1  UNL1        0.1004
     31 N         141.6272  145.6278  158.7870 N.1     1  UNL1       -0.1908
@<TRIPOS>BOND
     1     1     2    1
     2     2     3    1
     3     2     4    1
     4     4     5    1
     5     5     6    1
     6     6     7    1
     7     6     8    1
     8     8     9    1
     9     9    10    1
    10    10    14    1
    11    14    15    1
    12    15    16    1
    13    16    17    1
    14    17    18    1
    15    18    19    1
    16    18    20    1
    17    10    11    1
    18    11    23    1
    19    23    24    1
    20    24    25   ar
    21    25    26   ar
    22    26    27   ar
    23    27    30    1
    24    30    31    3
    25    27    28   ar
    26    28    29   ar
    27     8    12    1
    28    12     2    1
    29    11     6    1
    30    29    24   ar
    31    20    14    1
    32     3    13    1
    33    19    21    1
    34    19    22    1
