@<TRIPOS>MOLECULE
*****
 29 33 0 0 0
SMALL
GASTEIGER

@<TRIPOS>ATOM
      1 C         139.7527  137.6135  164.6525 C.3     1  UNL1        0.0294
      2 C         140.1794  137.5356  163.2166 C.3     1  UNL1        0.0666
      3 S         141.6234  137.7154  162.8525 S.3     1  UNL1       -0.0756
      4 C         143.2098  141.1618  163.6723 C.ar    1  UNL1        0.2029
      5 N         143.9075  140.2782  164.6635 N.ar    1  UNL1       -0.1250
      6 N         143.3982  138.8797  164.4771 N.ar    1  UNL1       -0.1220
      7 C         142.3856  138.8989  163.3706 C.ar    1  UNL1        0.1933
      8 N         142.2691  140.3092  162.8732 N.ar    1  UNL1       -0.2860
      9 C         141.3699  140.7837  161.7703 C.3     1  UNL1        0.1341
     10 C         144.7754  142.6184  161.2072 C.3     1  UNL1        0.0556
     11 C         144.1359  143.3080  162.3758 C.ar    1  UNL1        0.1001
     12 N         144.1039  144.7882  162.6165 N.ar    1  UNL1       -0.2085
     13 C         143.3644  145.0335  163.8983 C.ar    1  UNL1        0.2849
     14 O         142.9395  143.7049  164.4498 O.2     1  UNL1       -0.4283
     15 C         143.4163  142.6385  163.5089 C.ar    1  UNL1        0.1964
     16 C         138.6002  138.4892  165.0460 C.3     1  UNL1        0.0730
     17 N         138.7168  139.9801  164.9288 N.3     1  UNL1       -0.2726
     18 C         138.0801  140.8339  163.8725 C.3     1  UNL1        0.0721
     19 C         138.4604  142.2603  164.1382 C.3     1  UNL1        0.0190
     20 C         139.3321  142.2881  165.3586 C.3     1  UNL1        0.0201
     21 C         139.5392  143.7737  165.3696 C.3     1  UNL1        0.0061
     22 C         140.1759  142.9199  166.4258 C.3     1  UNL1        0.0237
     23 C         139.4906  140.8788  165.8472 C.3     1  UNL1        0.0724
     24 C         141.0306  142.7917  167.6518 C.ar    1  UNL1       -0.0225
     25 C         142.4136  142.2209  167.5455 C.ar    1  UNL1       -0.0043
     26 C         143.2683  142.0927  168.7715 C.ar    1  UNL1       -0.0003
     27 C         142.7400  142.5353  170.1037 C.ar    1  UNL1       -0.0000
     28 C         141.3569  143.1061  170.2100 C.ar    1  UNL1       -0.0003
     29 C         140.5022  143.2343  168.9840 C.ar    1  UNL1       -0.0043
@<TRIPOS>BOND
     1    10    11    1
     2    11    12   ar
     3    12    13   ar
     4    13    14   ar
     5    14    15   ar
     6    15     4    1
     7     4     5   ar
     8     5     6   ar
     9     6     7   ar
    10     7     3    1
    11     3     2    1
    12     2     1    1
    13     1    16    1
    14    16    17    1
    15    17    18    1
    16    18    19    1
    17    20    19    1
    18    20    21    1
    19    21    22    1
    20    22    24    1
    21    24    25   ar
    22    25    26   ar
    23    26    27   ar
    24    27    28   ar
    25    28    29   ar
    26    20    23    1
    27     7     8   ar
    28     8     9    1
    29    15    11   ar
    30     8     4   ar
    31    23    17    1
    32    22    20    1
    33    29    24   ar
@<TRIPOS>MOLECULE
*****
 29 33 0 0 0
SMALL
GASTEIGER

@<TRIPOS>ATOM
      1 C         143.8080  138.9289  162.0231 C.3     1  UNL1        0.0294
      2 C         144.1953  140.2948  162.5073 C.3     1  UNL1        0.0666
      3 S         144.7782  140.4671  163.8786 S.3     1  UNL1       -0.0756
      4 C         142.5772  140.2780  167.0701 C.ar    1  UNL1        0.2029
      5 N         142.8657  138.8256  166.8304 N.ar    1  UNL1       -0.1250
      6 N         143.7252  138.7197  165.6057 N.ar    1  UNL1       -0.1220
      7 C         143.9680  140.1066  165.0884 C.ar    1  UNL1        0.1933
      8 N         143.2586  141.0697  165.9935 N.ar    1  UNL1       -0.2860
      9 C         143.2346  142.5624  165.8475 C.3     1  UNL1        0.1341
     10 C         143.6613  142.2014  169.4732 C.3     1  UNL1        0.0556
     11 C         142.2506  141.7240  169.2943 C.ar    1  UNL1        0.1001
     12 N         141.0905  142.0470  170.1887 N.ar    1  UNL1       -0.2085
     13 C         139.8751  141.3625  169.6368 C.ar    1  UNL1        0.2849
     14 O         140.2842  140.6165  168.4014 O.2     1  UNL1       -0.4283
     15 C         141.7523  140.8400  168.1898 C.ar    1  UNL1        0.1964
     16 C         142.3661  138.6051  161.7664 C.3     1  UNL1        0.0730
     17 N         141.4191  138.4353  162.9172 N.3     1  UNL1       -0.2726
     18 C         141.1298  137.1527  163.6391 C.3     1  UNL1        0.0721
     19 C         140.1271  137.4431  164.7162 C.3     1  UNL1        0.0190
     20 C         139.7967  138.9052  164.6601 C.3     1  UNL1        0.0201
     21 C         138.8204  138.8892  165.7987 C.3     1  UNL1        0.0061
     22 C         139.1098  140.1718  165.0769 C.3     1  UNL1        0.0237
     23 C         140.5953  139.5184  163.5482 C.3     1  UNL1        0.0724
     24 C         138.8802  141.6437  164.9007 C.ar    1  UNL1       -0.0225
     25 C         139.7038  142.6292  165.6757 C.ar    1  UNL1       -0.0043
     26 C         139.4742  144.1010  165.4995 C.ar    1  UNL1       -0.0003
     27 C         138.4212  144.5873  164.5484 C.ar    1  UNL1       -0.0000
     28 C         137.5976  143.6017  163.7735 C.ar    1  UNL1       -0.0003
     29 C         137.8272  142.1299  163.9496 C.ar    1  UNL1       -0.0043
@<TRIPOS>BOND
     1    10    11    1
     2    11    12   ar
     3    12    13   ar
     4    13    14   ar
     5    14    15   ar
     6    15     4    1
     7     4     5   ar
     8     5     6   ar
     9     6     7   ar
    10     7     3    1
    11     3     2    1
    12     2     1    1
    13     1    16    1
    14    16    17    1
    15    17    18    1
    16    18    19    1
    17    20    19    1
    18    20    21    1
    19    21    22    1
    20    22    24    1
    21    24    25   ar
    22    25    26   ar
    23    26    27   ar
    24    27    28   ar
    25    28    29   ar
    26    20    23    1
    27     7     8   ar
    28     8     9    1
    29    15    11   ar
    30     8     4   ar
    31    23    17    1
    32    22    20    1
    33    29    24   ar
@<TRIPOS>MOLECULE
*****
 29 33 0 0 0
SMALL
GASTEIGER

@<TRIPOS>ATOM
      1 C         145.0672  140.2879  164.3234 C.3     1  UNL1        0.0294
      2 C         145.7676  141.4506  163.6848 C.3     1  UNL1        0.0666
      3 S         145.0577  142.2816  162.6574 S.3     1  UNL1       -0.0756
      4 C         141.5328  143.7986  163.2402 C.ar    1  UNL1        0.2029
      5 N         142.3909  144.7516  164.0185 N.ar    1  UNL1       -0.1250
      6 N         143.8157  144.2992  163.8949 N.ar    1  UNL1       -0.1220
      7 C         143.8383  143.0668  163.0403 C.ar    1  UNL1        0.1933
      8 N         142.4274  142.7573  162.6356 N.ar    1  UNL1       -0.2860
      9 C         141.9882  141.6084  161.7771 C.3     1  UNL1        0.1341
     10 C         139.8623  146.2408  161.8637 C.3     1  UNL1        0.0556
     11 C         139.2742  144.9963  162.4598 C.ar    1  UNL1        0.1001
     12 N         137.8149  144.6558  162.5278 N.ar    1  UNL1       -0.2085
     13 C         137.6809  143.3229  163.2025 C.ar    1  UNL1        0.2849
     14 O         139.0573  142.8395  163.5515 O.2     1  UNL1       -0.4283
     15 C         140.0420  143.8738  163.0925 C.ar    1  UNL1        0.1964
     16 C         144.4044  139.2494  163.4677 C.3     1  UNL1        0.0730
     17 N         142.9818  138.8549  163.7336 N.3     1  UNL1       -0.2726
     18 C         142.1906  137.8380  162.9656 C.3     1  UNL1        0.0721
     19 C         140.8205  137.7628  163.5716 C.3     1  UNL1        0.0190
     20 C         140.7650  138.7331  164.7141 C.3     1  UNL1        0.0201
     21 C         139.3444  138.4423  165.0980 C.3     1  UNL1        0.0061
     22 C         140.1356  139.4592  165.8660 C.3     1  UNL1        0.0237
     23 C         142.1007  139.4081  164.8142 C.3     1  UNL1        0.0724
     24 C         140.2291  140.4654  166.9744 C.ar    1  UNL1       -0.0225
     25 C         140.3688  141.9240  166.6534 C.ar    1  UNL1       -0.0043
     26 C         140.4623  142.9303  167.7619 C.ar    1  UNL1       -0.0003
     27 C         140.4161  142.4780  169.1913 C.ar    1  UNL1       -0.0000
     28 C         140.2765  141.0194  169.5123 C.ar    1  UNL1       -0.0003
     29 C         140.1830  140.0131  168.4038 C.ar    1  UNL1       -0.0043
@<TRIPOS>BOND
     1    10    11    1
     2    11    12   ar
     3    12    13   ar
     4    13    14   ar
     5    14    15   ar
     6    15     4    1
     7     4     5   ar
     8     5     6   ar
     9     6     7   ar
    10     7     3    1
    11     3     2    1
    12     2     1    1
    13     1    16    1
    14    16    17    1
    15    17    18    1
    16    18    19    1
    17    20    19    1
    18    20    21    1
    19    21    22    1
    20    22    24    1
    21    24    25   ar
    22    25    26   ar
    23    26    27   ar
    24    27    28   ar
    25    28    29   ar
    26    20    23    1
    27     7     8   ar
    28     8     9    1
    29    15    11   ar
    30     8     4   ar
    31    23    17    1
    32    22    20    1
    33    29    24   ar
@<TRIPOS>MOLECULE
*****
 29 33 0 0 0
SMALL
GASTEIGER

@<TRIPOS>ATOM
      1 C         143.9095  139.4725  164.7595 C.3     1  UNL1        0.0294
      2 C         145.1635  139.9029  164.0579 C.3     1  UNL1        0.0666
      3 S         145.2106  141.2239  163.3490 S.3     1  UNL1       -0.0756
      4 C         142.2579  143.7413  163.4514 C.ar    1  UNL1        0.2029
      5 N         142.9301  144.0293  164.7611 N.ar    1  UNL1       -0.1250
      6 N         144.1179  143.1214  164.8822 N.ar    1  UNL1       -0.1220
      7 C         144.1800  142.2722  163.6473 C.ar    1  UNL1        0.1933
      8 N         143.0305  142.6552  162.7630 N.ar    1  UNL1       -0.2860
      9 C         142.7098  142.0573  161.4252 C.3     1  UNL1        0.1341
     10 C         139.1758  142.7984  163.9625 C.3     1  UNL1        0.0556
     11 C         139.6124  143.9866  163.1578 C.ar    1  UNL1        0.1001
     12 N         138.7091  144.9501  162.4467 N.ar    1  UNL1       -0.2085
     13 C         139.5674  145.9789  161.7723 C.ar    1  UNL1        0.2849
     14 O         141.0013  145.6513  162.0666 O.2     1  UNL1       -0.4283
     15 C         141.0291  144.4200  162.9228 C.ar    1  UNL1        0.1964
     16 C         142.9660  138.5171  164.0909 C.3     1  UNL1        0.0730
     17 N         141.5423  138.4218  164.5533 N.3     1  UNL1       -0.2726
     18 C         140.4811  137.5403  163.9644 C.3     1  UNL1        0.0721
     19 C         139.2127  137.7651  164.7330 C.3     1  UNL1        0.0190
     20 C         139.4901  138.7854  165.7970 C.3     1  UNL1        0.0201
     21 C         138.1031  138.7973  166.3681 C.3     1  UNL1        0.0061
     22 C         139.1643  139.6788  166.9571 C.3     1  UNL1        0.0237
     23 C         140.9298  139.1913  165.6860 C.3     1  UNL1        0.0724
     24 C         139.5890  140.7034  167.9669 C.ar    1  UNL1       -0.0225
     25 C         139.3879  140.4425  169.4303 C.ar    1  UNL1       -0.0043
     26 C         139.8125  141.4672  170.4401 C.ar    1  UNL1       -0.0003
     27 C         140.4383  142.7528  169.9865 C.ar    1  UNL1       -0.0000
     28 C         140.6394  143.0136  168.5231 C.ar    1  UNL1       -0.0003
     29 C         140.2147  141.9890  167.5133 C.ar    1  UNL1       -0.0043
@<TRIPOS>BOND
     1    10    11    1
     2    11    12   ar
     3    12    13   ar
     4    13    14   ar
     5    14    15   ar
     6    15     4    1
     7     4     5   ar
     8     5     6   ar
     9     6     7   ar
    10     7     3    1
    11     3     2    1
    12     2     1    1
    13     1    16    1
    14    16    17    1
    15    17    18    1
    16    18    19    1
    17    20    19    1
    18    20    21    1
    19    21    22    1
    20    22    24    1
    21    24    25   ar
    22    25    26   ar
    23    26    27   ar
    24    27    28   ar
    25    28    29   ar
    26    20    23    1
    27     7     8   ar
    28     8     9    1
    29    15    11   ar
    30     8     4   ar
    31    23    17    1
    32    22    20    1
    33    29    24   ar
@<TRIPOS>MOLECULE
*****
 29 33 0 0 0
SMALL
GASTEIGER

@<TRIPOS>ATOM
      1 C         143.0785  138.1795  161.8109 C.3     1  UNL1        0.0294
      2 C         143.7494  139.2316  162.6435 C.3     1  UNL1        0.0666
      3 S         143.7837  139.0971  164.1370 S.3     1  UNL1       -0.0756
      4 C         142.9938  141.6831  166.9217 C.ar    1  UNL1        0.2029
      5 N         143.2579  142.5864  165.7537 N.ar    1  UNL1       -0.1250
      6 N         143.5860  141.7276  164.5684 N.ar    1  UNL1       -0.1220
      7 C         143.5246  140.2935  165.0038 C.ar    1  UNL1        0.1933
      8 N         143.1586  140.2659  166.4582 N.ar    1  UNL1       -0.2860
      9 C         142.9875  139.0371  167.3012 C.3     1  UNL1        0.1341
     10 C         140.1053  141.2411  168.3747 C.3     1  UNL1        0.0556
     11 C         141.3012  141.9169  168.9773 C.ar    1  UNL1        0.1001
     12 N         141.3794  142.5082  170.3536 N.ar    1  UNL1       -0.2085
     13 C         142.7554  143.0769  170.5364 C.ar    1  UNL1        0.2849
     14 O         143.5276  142.8370  169.2730 O.2     1  UNL1       -0.4283
     15 C         142.6289  142.1201  168.3095 C.ar    1  UNL1        0.1964
     16 C         141.5923  138.2156  161.6115 C.3     1  UNL1        0.0730
     17 N         140.6779  138.2915  162.7981 N.3     1  UNL1       -0.2726
     18 C         140.2311  137.1349  163.6423 C.3     1  UNL1        0.0721
     19 C         139.3269  137.6660  164.7148 C.3     1  UNL1        0.0190
     20 C         139.2149  139.1507  164.5336 C.3     1  UNL1        0.0201
     21 C         138.2938  139.3814  165.6948 C.3     1  UNL1        0.0061
     22 C         138.7406  140.5381  164.8506 C.3     1  UNL1        0.0237
     23 C         140.0498  139.5374  163.3489 C.3     1  UNL1        0.0724
     24 C         138.7248  142.0068  164.5463 C.ar    1  UNL1       -0.0225
     25 C         137.7000  142.5666  163.6048 C.ar    1  UNL1       -0.0043
     26 C         137.6841  144.0353  163.3005 C.ar    1  UNL1       -0.0003
     27 C         138.6932  144.9442  163.9376 C.ar    1  UNL1       -0.0000
     28 C         139.7180  144.3843  164.8790 C.ar    1  UNL1       -0.0003
     29 C         139.7338  142.9156  165.1834 C.ar    1  UNL1       -0.0043
@<TRIPOS>BOND
     1    10    11    1
     2    11    12   ar
     3    12    13   ar
     4    13    14   ar
     5    14    15   ar
     6    15     4    1
     7     4     5   ar
     8     5     6   ar
     9     6     7   ar
    10     7     3    1
    11     3     2    1
    12     2     1    1
    13     1    16    1
    14    16    17    1
    15    17    18    1
    16    18    19    1
    17    20    19    1
    18    20    21    1
    19    21    22    1
    20    22    24    1
    21    24    25   ar
    22    25    26   ar
    23    26    27   ar
    24    27    28   ar
    25    28    29   ar
    26    20    23    1
    27     7     8   ar
    28     8     9    1
    29    15    11   ar
    30     8     4   ar
    31    23    17    1
    32    22    20    1
    33    29    24   ar
@<TRIPOS>MOLECULE
*****
 29 33 0 0 0
SMALL
GASTEIGER

@<TRIPOS>ATOM
      1 C         143.6842  145.1083  163.4836 C.3     1  UNL1        0.0294
      2 C         142.2464  145.3262  163.8514 C.3     1  UNL1        0.0666
      3 S         141.1577  144.8542  162.9338 S.3     1  UNL1       -0.0756
      4 C         139.2445  141.5048  163.3657 C.ar    1  UNL1        0.2029
      5 N         138.6914  142.3040  164.5083 N.ar    1  UNL1       -0.1250
      6 N         139.3408  143.6560  164.4855 N.ar    1  UNL1       -0.1220
      7 C         140.2952  143.6923  163.3289 C.ar    1  UNL1        0.1933
      8 N         140.2357  142.3629  162.6368 N.ar    1  UNL1       -0.2860
      9 C         141.0283  141.9619  161.4281 C.3     1  UNL1        0.1341
     10 C         139.8220  138.8572  165.1840 C.3     1  UNL1        0.0556
     11 C         139.1372  138.8781  163.8496 C.ar    1  UNL1        0.1001
     12 N         138.5976  137.6858  163.1167 N.ar    1  UNL1       -0.2085
     13 C         137.9987  138.1658  161.8279 C.ar    1  UNL1        0.2849
     14 O         138.1681  139.6549  161.7644 O.2     1  UNL1       -0.4283
     15 C         138.8717  140.0951  163.0138 C.ar    1  UNL1        0.1964
     16 C         144.0996  143.8393  162.8001 C.3     1  UNL1        0.0730
     17 N         143.9511  142.5241  163.5059 N.3     1  UNL1       -0.2726
     18 C         144.3246  141.1802  162.9540 C.3     1  UNL1        0.0721
     19 C         144.0073  140.1474  163.9945 C.3     1  UNL1        0.0190
     20 C         143.4377  140.8529  165.1894 C.3     1  UNL1        0.0201
     21 C         143.2305  139.6186  166.0162 C.3     1  UNL1        0.0061
     22 C         142.8570  140.9625  166.5681 C.3     1  UNL1        0.0237
     23 C         143.4030  142.3218  164.8874 C.3     1  UNL1        0.0724
     24 C         142.3060  141.8016  167.6827 C.ar    1  UNL1       -0.0225
     25 C         143.1561  142.1112  168.8791 C.ar    1  UNL1       -0.0043
     26 C         142.6052  142.9503  169.9937 C.ar    1  UNL1       -0.0003
     27 C         141.2042  143.4798  169.9118 C.ar    1  UNL1       -0.0000
     28 C         140.3541  143.1702  168.7153 C.ar    1  UNL1       -0.0003
     29 C         140.9050  142.3311  167.6008 C.ar    1  UNL1       -0.0043
@<TRIPOS>BOND
     1    10    11    1
     2    11    12   ar
     3    12    13   ar
     4    13    14   ar
     5    14    15   ar
     6    15     4    1
     7     4     5   ar
     8     5     6   ar
     9     6     7   ar
    10     7     3    1
    11     3     2    1
    12     2     1    1
    13     1    16    1
    14    16    17    1
    15    17    18    1
    16    18    19    1
    17    20    19    1
    18    20    21    1
    19    21    22    1
    20    22    24    1
    21    24    25   ar
    22    25    26   ar
    23    26    27   ar
    24    27    28   ar
    25    28    29   ar
    26    20    23    1
    27     7     8   ar
    28     8     9    1
    29    15    11   ar
    30     8     4   ar
    31    23    17    1
    32    22    20    1
    33    29    24   ar
@<TRIPOS>MOLECULE
*****
 29 33 0 0 0
SMALL
GASTEIGER

@<TRIPOS>ATOM
      1 C         139.7023  138.0952  164.1508 C.3     1  UNL1        0.0294
      2 C         138.7129  137.7274  163.0850 C.3     1  UNL1        0.0666
      3 S         138.5316  138.6168  161.8908 S.3     1  UNL1       -0.0756
      4 C         138.6318  142.4935  162.0551 C.ar    1  UNL1        0.2029
      5 N         137.2976  142.2112  162.6800 N.ar    1  UNL1       -0.1250
      6 N         137.0977  140.7246  162.6945 N.ar    1  UNL1       -0.1220
      7 C         138.3084  140.0882  162.0786 C.ar    1  UNL1        0.1933
      8 N         139.2564  141.1813  161.6834 N.ar    1  UNL1       -0.2860
      9 C         140.5943  140.9950  161.0311 C.3     1  UNL1        0.1341
     10 C         139.2990  144.6869  164.3775 C.3     1  UNL1        0.0556
     11 C         139.5419  144.8579  162.9072 C.ar    1  UNL1        0.1001
     12 N         140.1343  146.0672  162.2463 N.ar    1  UNL1       -0.2085
     13 C         140.1937  145.8064  160.7703 C.ar    1  UNL1        0.2849
     14 O         139.6381  144.4359  160.5191 O.2     1  UNL1       -0.4283
     15 C         139.2353  143.8498  161.8397 C.ar    1  UNL1        0.1964
     16 C         141.1585  137.7905  163.9599 C.3     1  UNL1        0.0730
     17 N         142.1671  138.9004  163.9889 N.3     1  UNL1       -0.2726
     18 C         143.2679  139.1176  162.9933 C.3     1  UNL1        0.0721
     19 C         144.0331  140.3394  163.4077 C.3     1  UNL1        0.0190
     20 C         143.4052  140.8773  164.6593 C.3     1  UNL1        0.0201
     21 C         144.3426  142.0373  164.8189 C.3     1  UNL1        0.0061
     22 C         143.2419  141.8201  165.8144 C.3     1  UNL1        0.0237
     23 C         142.2520  139.9879  165.0185 C.3     1  UNL1        0.0724
     24 C         142.5120  142.2390  167.0561 C.ar    1  UNL1       -0.0225
     25 C         143.2331  142.2845  168.3707 C.ar    1  UNL1       -0.0043
     26 C         142.5032  142.7034  169.6123 C.ar    1  UNL1       -0.0003
     27 C         141.0523  143.0769  169.5395 C.ar    1  UNL1       -0.0000
     28 C         140.3312  143.0314  168.2249 C.ar    1  UNL1       -0.0003
     29 C         141.0611  142.6125  166.9832 C.ar    1  UNL1       -0.0043
@<TRIPOS>BOND
     1    10    11    1
     2    11    12   ar
     3    12    13   ar
     4    13    14   ar
     5    14    15   ar
     6    15     4    1
     7     4     5   ar
     8     5     6   ar
     9     6     7   ar
    10     7     3    1
    11     3     2    1
    12     2     1    1
    13     1    16    1
    14    16    17    1
    15    17    18    1
    16    18    19    1
    17    20    19    1
    18    20    21    1
    19    21    22    1
    20    22    24    1
    21    24    25   ar
    22    25    26   ar
    23    26    27   ar
    24    27    28   ar
    25    28    29   ar
    26    20    23    1
    27     7     8   ar
    28     8     9    1
    29    15    11   ar
    30     8     4   ar
    31    23    17    1
    32    22    20    1
    33    29    24   ar
@<TRIPOS>MOLECULE
*****
 29 33 0 0 0
SMALL
GASTEIGER

@<TRIPOS>ATOM
      1 C         139.1360  138.1428  161.6230 C.3     1  UNL1        0.0294
      2 C         139.1734  137.6604  163.0428 C.3     1  UNL1        0.0666
      3 S         140.3814  137.9226  163.8925 S.3     1  UNL1       -0.0756
      4 C         140.7831  139.8621  167.2305 C.ar    1  UNL1        0.2029
      5 N         139.3067  139.9885  166.9976 N.ar    1  UNL1       -0.1250
      6 N         138.9765  139.2774  165.7188 N.ar    1  UNL1       -0.1220
      7 C         140.2489  138.7114  165.1614 C.ar    1  UNL1        0.1933
      8 N         141.3654  139.0728  166.0956 N.ar    1  UNL1       -0.2860
      9 C         142.8105  138.7087  165.9249 C.3     1  UNL1        0.1341
     10 C         140.4877  142.8813  168.4334 C.3     1  UNL1        0.0556
     11 C         141.4079  141.8137  168.9469 C.ar    1  UNL1        0.1001
     12 N         142.3539  141.9465  170.1034 N.ar    1  UNL1       -0.2085
     13 C         143.0743  140.6408  170.2652 C.ar    1  UNL1        0.2849
     14 O         142.5736  139.7011  169.2087 O.2     1  UNL1       -0.4283
     15 C         141.5437  140.4260  168.3939 C.ar    1  UNL1        0.1964
     16 C         139.4114  139.5844  161.3131 C.3     1  UNL1        0.0730
     17 N         138.9499  140.6557  162.2562 N.3     1  UNL1       -0.2726
     18 C         137.5252  140.9690  162.6054 C.3     1  UNL1        0.0721
     19 C         137.5269  142.1087  163.5806 C.3     1  UNL1        0.0190
     20 C         138.9527  142.4998  163.8341 C.3     1  UNL1        0.0201
     21 C         138.6428  143.6061  164.7985 C.3     1  UNL1        0.0061
     22 C         140.0675  143.2928  164.4493 C.3     1  UNL1        0.0237
     23 C         139.8322  141.6018  163.0156 C.3     1  UNL1        0.0724
     24 C         141.5337  143.5697  164.6028 C.ar    1  UNL1       -0.0225
     25 C         142.1436  144.7698  163.9411 C.ar    1  UNL1       -0.0043
     26 C         143.6098  145.0467  164.0946 C.ar    1  UNL1       -0.0003
     27 C         144.4661  144.1236  164.9098 C.ar    1  UNL1       -0.0000
     28 C         143.8561  142.9235  165.5714 C.ar    1  UNL1       -0.0003
     29 C         142.3900  142.6465  165.4179 C.ar    1  UNL1       -0.0043
@<TRIPOS>BOND
     1    10    11    1
     2    11    12   ar
     3    12    13   ar
     4    13    14   ar
     5    14    15   ar
     6    15     4    1
     7     4     5   ar
     8     5     6   ar
     9     6     7   ar
    10     7     3    1
    11     3     2    1
    12     2     1    1
    13     1    16    1
    14    16    17    1
    15    17    18    1
    16    18    19    1
    17    20    19    1
    18    20    21    1
    19    21    22    1
    20    22    24    1
    21    24    25   ar
    22    25    26   ar
    23    26    27   ar
    24    27    28   ar
    25    28    29   ar
    26    20    23    1
    27     7     8   ar
    28     8     9    1
    29    15    11   ar
    30     8     4   ar
    31    23    17    1
    32    22    20    1
    33    29    24   ar
@<TRIPOS>MOLECULE
*****
 29 33 0 0 0
SMALL
GASTEIGER

@<TRIPOS>ATOM
      1 C         137.6894  143.2764  162.6191 C.3     1  UNL1        0.0294
      2 C         138.2528  144.6594  162.7600 C.3     1  UNL1        0.0666
      3 S         139.1369  144.9940  163.9247 S.3     1  UNL1       -0.0756
      4 C         142.2486  142.7098  164.3320 C.ar    1  UNL1        0.2029
      5 N         141.5325  142.4576  165.6257 N.ar    1  UNL1       -0.1250
      6 N         140.2797  143.2825  165.6306 N.ar    1  UNL1       -0.1220
      7 C         140.2215  144.0446  164.3399 C.ar    1  UNL1        0.1933
      8 N         141.4383  143.6907  163.5373 N.ar    1  UNL1       -0.2860
      9 C         141.7842  144.2240  162.1786 C.3     1  UNL1        0.1341
     10 C         142.5888  140.1190  162.3771 C.3     1  UNL1        0.0556
     11 C         143.7033  140.8992  163.0090 C.ar    1  UNL1        0.1001
     12 N         145.1699  140.6255  162.8532 N.ar    1  UNL1       -0.2085
     13 C         145.9199  141.6472  163.6555 C.ar    1  UNL1        0.2849
     14 O         144.9168  142.5523  164.3071 O.2     1  UNL1       -0.4283
     15 C         143.5469  142.0900  163.9075 C.ar    1  UNL1        0.1964
     16 C         138.3135  142.3063  161.6602 C.3     1  UNL1        0.0730
     17 N         138.3908  140.8499  162.0106 N.3     1  UNL1       -0.2726
     18 C         137.8558  139.7155  161.1879 C.3     1  UNL1        0.0721
     19 C         138.1511  138.4367  161.9141 C.3     1  UNL1        0.0190
     20 C         138.8686  138.7807  163.1857 C.3     1  UNL1        0.0201
     21 C         139.0205  137.3683  163.6671 C.3     1  UNL1        0.0061
     22 C         139.5555  138.5027  164.4899 C.3     1  UNL1        0.0237
     23 C         139.0167  140.2722  163.2453 C.3     1  UNL1        0.0724
     24 C         140.2610  138.9971  165.7178 C.ar    1  UNL1       -0.0225
     25 C         141.7530  138.8838  165.8224 C.ar    1  UNL1       -0.0043
     26 C         142.4585  139.3782  167.0503 C.ar    1  UNL1       -0.0003
     27 C         141.6719  139.9859  168.1736 C.ar    1  UNL1       -0.0000
     28 C         140.1798  140.0993  168.0691 C.ar    1  UNL1       -0.0003
     29 C         139.4744  139.6048  166.8411 C.ar    1  UNL1       -0.0043
@<TRIPOS>BOND
     1    10    11    1
     2    11    12   ar
     3    12    13   ar
     4    13    14   ar
     5    14    15   ar
     6    15     4    1
     7     4     5   ar
     8     5     6   ar
     9     6     7   ar
    10     7     3    1
    11     3     2    1
    12     2     1    1
    13     1    16    1
    14    16    17    1
    15    17    18    1
    16    18    19    1
    17    20    19    1
    18    20    21    1
    19    21    22    1
    20    22    24    1
    21    24    25   ar
    22    25    26   ar
    23    26    27   ar
    24    27    28   ar
    25    28    29   ar
    26    20    23    1
    27     7     8   ar
    28     8     9    1
    29    15    11   ar
    30     8     4   ar
    31    23    17    1
    32    22    20    1
    33    29    24   ar
