@<TRIPOS>MOLECULE
*****
 33 37 0 0 0
SMALL
GASTEIGER

@<TRIPOS>ATOM
      1 C         142.9751  144.2599  162.6131 C.3     1  UNL1        0.2355
      2 O         142.1804  144.4633  163.8689 O.3     1  UNL1       -0.3290
      3 C         140.7215  144.8021  163.7866 C.3     1  UNL1        0.1629
      4 C         140.0573  144.9376  162.4485 C.3     1  UNL1        0.1144
      5 C         140.8520  144.7342  161.1927 C.3     1  UNL1        0.1629
      6 O         142.3109  144.3954  161.2750 O.3     1  UNL1       -0.3290
      7 N         138.5984  145.2764  162.3663 N.3     1  UNL1       -0.2895
      8 H         138.3523  145.2801  161.3764 H       1  UNL1        0.1237
      9 C         137.5875  144.4127  163.0606 C.3     1  UNL1        0.1153
     10 C         137.7902  142.9280  163.1290 C.ar    1  UNL1        0.0782
     11 C         138.0956  142.2725  164.4432 C.ar    1  UNL1        0.0562
     12 C         138.2983  140.7878  164.5116 C.ar    1  UNL1        0.1752
     13 C         138.1955  139.9587  163.2658 C.ar    1  UNL1        0.1914
     14 C         137.8901  140.6142  161.9517 C.ar    1  UNL1        0.1384
     15 N         137.6874  142.0988  161.8832 N.ar    1  UNL1       -0.2434
     16 O         138.3982  138.4739  163.3342 O.3     1  UNL1       -0.4668
     17 C         138.7037  137.8185  164.6484 C.3     1  UNL1        0.2527
     18 C         138.8064  138.6477  165.8942 C.3     1  UNL1        0.2526
     19 O         138.6037  140.1323  165.8257 O.3     1  UNL1       -0.4683
     20 C         144.4340  143.9211  162.6953 C.3     1  UNL1        0.0660
     21 C         144.9275  142.9832  163.7569 C.3     1  UNL1        0.0316
     22 C         142.7179  141.5381  167.4010 C.ar    1  UNL1        0.1388
     23 C         142.2029  140.1304  167.4566 C.ar    1  UNL1        0.0384
     24 C         142.4244  139.2044  166.2975 C.ar    1  UNL1        0.0222
     25 C         143.1609  139.6861  165.0828 C.ar    1  UNL1        0.0812
     26 N         143.3824  138.7601  163.9238 N.ar    1  UNL1       -0.2439
     27 C         144.1189  139.2418  162.7091 C.ar    1  UNL1        0.0985
     28 C         144.6340  140.6495  162.6535 C.ar    1  UNL1        0.0164
     29 C         144.4125  141.5755  163.8125 C.ar    1  UNL1       -0.0189
     30 C         143.6759  141.0938  165.0272 C.ar    1  UNL1        0.0168
     31 C         143.4544  142.0198  166.1863 C.ar    1  UNL1        0.0381
     32 C         143.4012  142.4001  169.7547 C.3     1  UNL1        0.2525
     33 O         142.4963  142.4641  168.5601 O.3     1  UNL1       -0.4714
@<TRIPOS>BOND
     1    32    33    1
     2    33    22    1
     3    22    23   ar
     4    23    24   ar
     5    24    25   ar
     6    25    26   ar
     7    26    27   ar
     8    27    28   ar
     9    28    29   ar
    10    29    21    1
    11    21    20    1
    12     1    20    1
    13     1     2    1
    14     2     3    1
    15     3     4    1
    16     4     7    1
    17     7     9    1
    18     9    10    1
    19    10    11   ar
    20    11    12   ar
    21    12    13   ar
    22    13    14   ar
    23    14    15   ar
    24    13    16    1
    25    16    17    1
    26    17    18    1
    27    18    19    1
    28     4     5    1
    29     5     6    1
    30    29    30   ar
    31    30    31   ar
    32    31    22   ar
    33    30    25   ar
    34     6     1    1
    35    15    10   ar
    36    19    12    1
    37     7     8    1
@<TRIPOS>MOLECULE
*****
 33 37 0 0 0
SMALL
GASTEIGER

@<TRIPOS>ATOM
      1 C         137.7418  142.8063  163.2272 C.3     1  UNL1        0.2355
      2 O         137.8102  141.6666  164.2000 O.3     1  UNL1       -0.3290
      3 C         137.8595  140.2540  163.6981 C.3     1  UNL1        0.1629
      4 C         137.8405  139.9810  162.2232 C.3     1  UNL1        0.1144
      5 C         137.7721  141.1207  161.2504 C.3     1  UNL1        0.1629
      6 O         137.7227  142.5334  161.7524 O.3     1  UNL1       -0.3290
      7 N         137.8898  138.5684  161.7213 N.3     1  UNL1       -0.2895
      8 H         137.2757  138.5232  160.9082 H       1  UNL1        0.1237
      9 C         139.1994  137.9642  161.3089 C.3     1  UNL1        0.1153
     10 C         140.4318  138.2155  162.1263 C.ar    1  UNL1        0.0782
     11 C         141.4393  139.2297  161.6719 C.ar    1  UNL1        0.0562
     12 C         142.6717  139.4809  162.4893 C.ar    1  UNL1        0.1752
     13 C         142.8965  138.7180  163.7611 C.ar    1  UNL1        0.1914
     14 C         141.8891  137.7038  164.2154 C.ar    1  UNL1        0.1384
     15 N         140.6567  137.4526  163.3981 N.ar    1  UNL1       -0.2434
     16 O         144.1289  138.9692  164.5785 O.3     1  UNL1       -0.4668
     17 C         145.1364  139.9834  164.1241 C.3     1  UNL1        0.2527
     18 C         144.9115  140.7463  162.8523 C.3     1  UNL1        0.2526
     19 O         143.6791  140.4951  162.0350 O.3     1  UNL1       -0.4683
     20 C         137.6924  144.2189  163.7291 C.3     1  UNL1        0.0660
     21 C         138.7609  144.7245  164.6527 C.3     1  UNL1        0.0316
     22 C         141.0308  141.9143  167.3359 C.ar    1  UNL1        0.1388
     23 C         142.4720  141.6084  167.0542 C.ar    1  UNL1        0.0384
     24 C         143.1566  142.2394  165.8780 C.ar    1  UNL1        0.0222
     25 C         142.4000  143.1761  164.9836 C.ar    1  UNL1        0.0812
     26 N         143.0845  143.8070  163.8075 N.ar    1  UNL1       -0.2439
     27 C         142.3279  144.7437  162.9131 C.ar    1  UNL1        0.0985
     28 C         140.8867  145.0496  163.1948 C.ar    1  UNL1        0.0164
     29 C         140.2021  144.4187  164.3709 C.ar    1  UNL1       -0.0189
     30 C         140.9588  143.4819  165.2654 C.ar    1  UNL1        0.0168
     31 C         140.2742  142.8510  166.4415 C.ar    1  UNL1        0.0381
     32 C         139.4722  140.0804  168.3146 C.3     1  UNL1        0.2525
     33 O         140.3463  141.2834  168.5121 O.3     1  UNL1       -0.4714
@<TRIPOS>BOND
     1    32    33    1
     2    33    22    1
     3    22    23   ar
     4    23    24   ar
     5    24    25   ar
     6    25    26   ar
     7    26    27   ar
     8    27    28   ar
     9    28    29   ar
    10    29    21    1
    11    21    20    1
    12     1    20    1
    13     1     2    1
    14     2     3    1
    15     3     4    1
    16     4     7    1
    17     7     9    1
    18     9    10    1
    19    10    11   ar
    20    11    12   ar
    21    12    13   ar
    22    13    14   ar
    23    14    15   ar
    24    13    16    1
    25    16    17    1
    26    17    18    1
    27    18    19    1
    28     4     5    1
    29     5     6    1
    30    29    30   ar
    31    30    31   ar
    32    31    22   ar
    33    30    25   ar
    34     6     1    1
    35    15    10   ar
    36    19    12    1
    37     7     8    1
@<TRIPOS>MOLECULE
*****
 33 37 0 0 0
SMALL
GASTEIGER

@<TRIPOS>ATOM
      1 C         142.1587  137.9077  164.0768 C.3     1  UNL1        0.2355
      2 O         142.9024  138.6328  165.1590 O.3     1  UNL1       -0.3290
      3 C         144.0389  139.5457  164.8059 C.3     1  UNL1        0.1629
      4 C         144.4319  139.7336  163.3705 C.3     1  UNL1        0.1144
      5 C         143.6882  139.0085  162.2883 C.3     1  UNL1        0.1629
      6 O         142.5516  138.0956  162.6415 O.3     1  UNL1       -0.3290
      7 N         145.5685  140.6465  163.0173 N.3     1  UNL1       -0.2895
      8 H         145.6336  140.6555  161.9995 H       1  UNL1        0.1237
      9 C         145.5462  142.0787  163.4624 C.3     1  UNL1        0.1153
     10 C         144.3125  142.9077  163.2607 C.ar    1  UNL1        0.0782
     11 C         143.8802  143.2842  161.8746 C.ar    1  UNL1        0.0562
     12 C         142.6465  144.1133  161.6729 C.ar    1  UNL1        0.1752
     13 C         141.8450  144.5657  162.8574 C.ar    1  UNL1        0.1914
     14 C         142.2773  144.1892  164.2435 C.ar    1  UNL1        0.1384
     15 N         143.5110  143.3602  164.4452 N.ar    1  UNL1       -0.2434
     16 O         140.6112  145.3947  162.6557 O.3     1  UNL1       -0.4668
     17 C         140.1790  145.7712  161.2695 C.3     1  UNL1        0.2527
     18 C         140.9805  145.3187  160.0851 C.3     1  UNL1        0.2526
     19 O         142.2142  144.4898  160.2868 O.3     1  UNL1       -0.4683
     20 C         141.0221  136.9949  164.4300 C.3     1  UNL1        0.0660
     21 C         139.6788  137.5676  164.7730 C.3     1  UNL1        0.0316
     22 C         139.4893  141.9715  165.6783 C.ar    1  UNL1        0.1388
     23 C         138.8059  142.9047  164.7234 C.ar    1  UNL1        0.0384
     24 C         138.1856  142.3700  163.4667 C.ar    1  UNL1        0.0222
     25 C         138.2487  140.9021  163.1649 C.ar    1  UNL1        0.0812
     26 N         137.6284  140.3674  161.9082 N.ar    1  UNL1       -0.2439
     27 C         137.6916  138.8994  161.6064 C.ar    1  UNL1        0.0985
     28 C         138.3751  137.9661  162.5614 C.ar    1  UNL1        0.0164
     29 C         138.9954  138.5008  163.8181 C.ar    1  UNL1       -0.0189
     30 C         138.9322  139.9689  164.1198 C.ar    1  UNL1        0.0168
     31 C         139.5525  140.5036  165.3765 C.ar    1  UNL1        0.0381
     32 C         141.5249  142.1511  167.2828 C.3     1  UNL1        0.2525
     33 O         140.1096  142.5062  166.9350 O.3     1  UNL1       -0.4714
@<TRIPOS>BOND
     1    32    33    1
     2    33    22    1
     3    22    23   ar
     4    23    24   ar
     5    24    25   ar
     6    25    26   ar
     7    26    27   ar
     8    27    28   ar
     9    28    29   ar
    10    29    21    1
    11    21    20    1
    12     1    20    1
    13     1     2    1
    14     2     3    1
    15     3     4    1
    16     4     7    1
    17     7     9    1
    18     9    10    1
    19    10    11   ar
    20    11    12   ar
    21    12    13   ar
    22    13    14   ar
    23    14    15   ar
    24    13    16    1
    25    16    17    1
    26    17    18    1
    27    18    19    1
    28     4     5    1
    29     5     6    1
    30    29    30   ar
    31    30    31   ar
    32    31    22   ar
    33    30    25   ar
    34     6     1    1
    35    15    10   ar
    36    19    12    1
    37     7     8    1
@<TRIPOS>MOLECULE
*****
 33 37 0 0 0
SMALL
GASTEIGER

@<TRIPOS>ATOM
      1 C         141.4373  138.3252  164.4927 C.3     1  UNL1        0.2355
      2 O         141.5797  138.1757  163.0070 O.3     1  UNL1       -0.3290
      3 C         140.3620  138.1929  162.1313 C.3     1  UNL1        0.1629
      4 C         139.0018  138.3595  162.7414 C.3     1  UNL1        0.1144
      5 C         138.8593  138.5090  164.2271 C.3     1  UNL1        0.1629
      6 O         140.0771  138.4919  165.1028 O.3     1  UNL1       -0.3290
      7 N         137.7841  138.3767  161.8657 N.3     1  UNL1       -0.2895
      8 H         136.9762  138.4328  162.4858 H       1  UNL1        0.1237
      9 C         137.6156  139.4547  160.8364 C.3     1  UNL1        0.1153
     10 C         137.9264  140.8800  161.1854 C.ar    1  UNL1        0.0782
     11 C         138.8711  141.6725  160.3312 C.ar    1  UNL1        0.0562
     12 C         139.1819  143.0979  160.6803 C.ar    1  UNL1        0.1752
     13 C         138.5479  143.7307  161.8834 C.ar    1  UNL1        0.1914
     14 C         137.6032  142.9383  162.7375 C.ar    1  UNL1        0.1384
     15 N         137.2924  141.5130  162.3886 N.ar    1  UNL1       -0.2434
     16 O         138.8587  145.1561  162.2324 O.3     1  UNL1       -0.4668
     17 C         139.8034  145.9486  161.3783 C.3     1  UNL1        0.2527
     18 C         140.4374  145.3156  160.1751 C.3     1  UNL1        0.2526
     19 O         140.1266  143.8903  159.8261 O.3     1  UNL1       -0.4683
     20 C         142.6550  138.3081  165.3684 C.3     1  UNL1        0.0660
     21 C         143.2105  139.5937  165.9058 C.3     1  UNL1        0.0316
     22 C         140.9143  143.3966  165.1881 C.ar    1  UNL1        0.1388
     23 C         141.4538  144.4321  164.2466 C.ar    1  UNL1        0.0384
     24 C         142.7587  144.2000  163.5442 C.ar    1  UNL1        0.0222
     25 C         143.5241  142.9324  163.7834 C.ar    1  UNL1        0.0812
     26 N         144.8291  142.7003  163.0811 N.ar    1  UNL1       -0.2439
     27 C         145.5945  141.4327  163.3203 C.ar    1  UNL1        0.0985
     28 C         145.0550  140.3971  164.2619 C.ar    1  UNL1        0.0164
     29 C         143.7500  140.6292  164.9642 C.ar    1  UNL1       -0.0189
     30 C         142.9846  141.8969  164.7250 C.ar    1  UNL1        0.0168
     31 C         141.6797  142.1290  165.4273 C.ar    1  UNL1        0.0381
     32 C         138.8268  144.8804  165.6247 C.3     1  UNL1        0.2525
     33 O         139.6093  143.6287  165.8905 O.3     1  UNL1       -0.4714
@<TRIPOS>BOND
     1    32    33    1
     2    33    22    1
     3    22    23   ar
     4    23    24   ar
     5    24    25   ar
     6    25    26   ar
     7    26    27   ar
     8    27    28   ar
     9    28    29   ar
    10    29    21    1
    11    21    20    1
    12     1    20    1
    13     1     2    1
    14     2     3    1
    15     3     4    1
    16     4     7    1
    17     7     9    1
    18     9    10    1
    19    10    11   ar
    20    11    12   ar
    21    12    13   ar
    22    13    14   ar
    23    14    15   ar
    24    13    16    1
    25    16    17    1
    26    17    18    1
    27    18    19    1
    28     4     5    1
    29     5     6    1
    30    29    30   ar
    31    30    31   ar
    32    31    22   ar
    33    30    25   ar
    34     6     1    1
    35    15    10   ar
    36    19    12    1
    37     7     8    1
@<TRIPOS>MOLECULE
*****
 33 37 0 0 0
SMALL
GASTEIGER

@<TRIPOS>ATOM
      1 C         140.6378  144.7558  162.9412 C.3     1  UNL1        0.2355
      2 O         141.0131  144.2755  161.5707 O.3     1  UNL1       -0.3290
      3 C         142.4192  143.8353  161.2891 C.3     1  UNL1        0.1629
      4 C         143.4500  143.8755  162.3782 C.3     1  UNL1        0.1144
      5 C         143.0746  144.3558  163.7488 C.3     1  UNL1        0.1629
      6 O         141.6685  144.7959  164.0302 O.3     1  UNL1       -0.3290
      7 N         144.8560  143.4353  162.0967 N.3     1  UNL1       -0.2895
      8 H         145.4271  143.7564  162.8784 H       1  UNL1        0.1237
      9 C         145.1621  141.9793  161.9059 C.3     1  UNL1        0.1153
     10 C         144.4232  140.9467  162.7044 C.ar    1  UNL1        0.0782
     11 C         143.2937  140.1825  162.0797 C.ar    1  UNL1        0.0562
     12 C         142.5548  139.1498  162.8782 C.ar    1  UNL1        0.1752
     13 C         142.9454  138.8813  164.3014 C.ar    1  UNL1        0.1914
     14 C         144.0749  139.6456  164.9260 C.ar    1  UNL1        0.1384
     15 N         144.8138  140.6782  164.1276 N.ar    1  UNL1       -0.2434
     16 O         142.2064  137.8486  165.0999 O.3     1  UNL1       -0.4668
     17 C         141.0769  137.0844  164.4752 C.3     1  UNL1        0.2527
     18 C         140.6864  137.3529  163.0520 C.3     1  UNL1        0.2526
     19 O         141.4253  138.3856  162.2536 O.3     1  UNL1       -0.4683
     20 C         139.2318  145.1959  163.2227 C.3     1  UNL1        0.0660
     21 C         138.4113  144.4738  164.2501 C.3     1  UNL1        0.0316
     22 C         140.4663  142.0873  167.4644 C.ar    1  UNL1        0.1388
     23 C         140.3936  140.5892  167.4485 C.ar    1  UNL1        0.0384
     24 C         139.6360  139.8866  166.3612 C.ar    1  UNL1        0.0222
     25 C         138.9510  140.6820  165.2898 C.ar    1  UNL1        0.0812
     26 N         138.1934  139.9794  164.2025 N.ar    1  UNL1       -0.2439
     27 C         137.5084  140.7748  163.1310 C.ar    1  UNL1        0.0985
     28 C         137.5810  142.2730  163.1469 C.ar    1  UNL1        0.0164
     29 C         138.3387  142.9757  164.2342 C.ar    1  UNL1       -0.0189
     30 C         139.0237  142.1801  165.3057 C.ar    1  UNL1        0.0168
     31 C         139.7813  142.8828  166.3930 C.ar    1  UNL1        0.0381
     32 C         140.4869  143.6020  169.5752 C.3     1  UNL1        0.2525
     33 O         141.2239  142.7900  168.5518 O.3     1  UNL1       -0.4714
@<TRIPOS>BOND
     1    32    33    1
     2    33    22    1
     3    22    23   ar
     4    23    24   ar
     5    24    25   ar
     6    25    26   ar
     7    26    27   ar
     8    27    28   ar
     9    28    29   ar
    10    29    21    1
    11    21    20    1
    12     1    20    1
    13     1     2    1
    14     2     3    1
    15     3     4    1
    16     4     7    1
    17     7     9    1
    18     9    10    1
    19    10    11   ar
    20    11    12   ar
    21    12    13   ar
    22    13    14   ar
    23    14    15   ar
    24    13    16    1
    25    16    17    1
    26    17    18    1
    27    18    19    1
    28     4     5    1
    29     5     6    1
    30    29    30   ar
    31    30    31   ar
    32    31    22   ar
    33    30    25   ar
    34     6     1    1
    35    15    10   ar
    36    19    12    1
    37     7     8    1
@<TRIPOS>MOLECULE
*****
 33 37 0 0 0
SMALL
GASTEIGER

@<TRIPOS>ATOM
      1 C         144.4997  140.0468  163.5347 C.3     1  UNL1        0.2355
      2 O         143.7365  139.3538  164.6244 O.3     1  UNL1       -0.3290
      3 C         142.6419  138.3890  164.2766 C.3     1  UNL1        0.1629
      4 C         142.3105  138.1171  162.8391 C.3     1  UNL1        0.1144
      5 C         143.0737  138.8101  161.7494 C.3     1  UNL1        0.1629
      6 O         144.1683  139.7750  162.0973 O.3     1  UNL1       -0.3290
      7 N         141.2159  137.1523  162.4913 N.3     1  UNL1       -0.2895
      8 H         141.3498  136.3303  163.0803 H       1  UNL1        0.1237
      9 C         139.7804  137.5616  162.6389 C.3     1  UNL1        0.1153
     10 C         139.3831  138.9925  162.4280 C.ar    1  UNL1        0.0782
     11 C         138.8326  139.7942  163.5701 C.ar    1  UNL1        0.0562
     12 C         138.4352  141.2252  163.3591 C.ar    1  UNL1        0.1752
     13 C         138.5883  141.8544  162.0061 C.ar    1  UNL1        0.1914
     14 C         139.1388  141.0527  160.8641 C.ar    1  UNL1        0.1384
     15 N         139.5362  139.6218  161.0750 N.ar    1  UNL1       -0.2434
     16 O         138.1909  143.2854  161.7952 O.3     1  UNL1       -0.4668
     17 C         137.6404  144.0871  162.9372 C.3     1  UNL1        0.2527
     18 C         137.4873  143.4578  164.2902 C.3     1  UNL1        0.2526
     19 O         137.8847  142.0268  164.5012 O.3     1  UNL1       -0.4683
     20 C         145.5943  141.0116  163.8825 C.3     1  UNL1        0.0660
     21 C         145.2637  142.4425  164.1881 C.3     1  UNL1        0.0316
     22 C         142.3971  142.0399  167.6334 C.ar    1  UNL1        0.1388
     23 C         140.9860  142.5295  167.4961 C.ar    1  UNL1        0.0384
     24 C         140.5303  143.1533  166.2103 C.ar    1  UNL1        0.0222
     25 C         141.4858  143.2875  165.0618 C.ar    1  UNL1        0.0812
     26 N         141.0301  143.9113  163.7760 N.ar    1  UNL1       -0.2439
     27 C         141.9856  144.0455  162.6276 C.ar    1  UNL1        0.0985
     28 C         143.3969  143.5559  162.7649 C.ar    1  UNL1        0.0164
     29 C         143.8525  142.9321  164.0507 C.ar    1  UNL1       -0.0189
     30 C         142.8969  142.7979  165.1992 C.ar    1  UNL1        0.0168
     31 C         143.3526  142.1741  166.4850 C.ar    1  UNL1        0.0381
     32 C         143.7142  142.1964  169.8674 C.3     1  UNL1        0.2525
     33 O         142.8528  141.4161  168.9192 O.3     1  UNL1       -0.4714
@<TRIPOS>BOND
     1    32    33    1
     2    33    22    1
     3    22    23   ar
     4    23    24   ar
     5    24    25   ar
     6    25    26   ar
     7    26    27   ar
     8    27    28   ar
     9    28    29   ar
    10    29    21    1
    11    21    20    1
    12     1    20    1
    13     1     2    1
    14     2     3    1
    15     3     4    1
    16     4     7    1
    17     7     9    1
    18     9    10    1
    19    10    11   ar
    20    11    12   ar
    21    12    13   ar
    22    13    14   ar
    23    14    15   ar
    24    13    16    1
    25    16    17    1
    26    17    18    1
    27    18    19    1
    28     4     5    1
    29     5     6    1
    30    29    30   ar
    31    30    31   ar
    32    31    22   ar
    33    30    25   ar
    34     6     1    1
    35    15    10   ar
    36    19    12    1
    37     7     8    1
@<TRIPOS>MOLECULE
*****
 33 37 0 0 0
SMALL
GASTEIGER

@<TRIPOS>ATOM
      1 C         141.9958  137.9217  163.9873 C.3     1  UNL1        0.2355
      2 O         142.1876  138.3967  162.5775 O.3     1  UNL1       -0.3290
      3 C         143.3536  139.2757  162.2343 C.3     1  UNL1        0.1629
      4 C         144.3278  139.6798  163.3010 C.3     1  UNL1        0.1144
      5 C         144.1359  139.2048  164.7108 C.3     1  UNL1        0.1629
      6 O         142.9699  138.3257  165.0539 O.3     1  UNL1       -0.3290
      7 N         145.4937  140.5589  162.9578 N.3     1  UNL1       -0.2895
      8 H         145.5981  140.5269  161.9437 H       1  UNL1        0.1237
      9 C         145.4806  142.0077  163.3463 C.3     1  UNL1        0.1153
     10 C         144.2107  142.7996  163.2461 C.ar    1  UNL1        0.0782
     11 C         143.7599  143.3291  161.9170 C.ar    1  UNL1        0.0562
     12 C         142.4899  144.1210  161.8169 C.ar    1  UNL1        0.1752
     13 C         141.6708  144.3835  163.0458 C.ar    1  UNL1        0.1914
     14 C         142.1216  143.8540  164.3748 C.ar    1  UNL1        0.1384
     15 N         143.3916  143.0621  164.4750 N.ar    1  UNL1       -0.2434
     16 O         140.4008  145.1755  162.9457 O.3     1  UNL1       -0.4668
     17 C         139.9499  145.7049  161.6166 C.3     1  UNL1        0.2527
     18 C         140.7691  145.4424  160.3877 C.3     1  UNL1        0.2526
     19 O         142.0390  144.6505  160.4878 O.3     1  UNL1       -0.4683
     20 C         140.8298  137.0427  164.3304 C.3     1  UNL1        0.0660
     21 C         139.6071  137.6334  164.9677 C.3     1  UNL1        0.0316
     22 C         137.8222  140.4202  161.9185 C.ar    1  UNL1        0.1388
     23 C         137.7580  141.8930  162.1954 C.ar    1  UNL1        0.0384
     24 C         138.2887  142.4369  163.4887 C.ar    1  UNL1        0.0222
     25 C         138.8837  141.5080  164.5051 C.ar    1  UNL1        0.0812
     26 N         139.4144  142.0519  165.7983 N.ar    1  UNL1       -0.2439
     27 C         140.0094  141.1229  166.8147 C.ar    1  UNL1        0.0985
     28 C         140.0736  139.6501  166.5379 C.ar    1  UNL1        0.0164
     29 C         139.5429  139.1062  165.2446 C.ar    1  UNL1       -0.0189
     30 C         138.9479  140.0352  164.2282 C.ar    1  UNL1        0.0168
     31 C         138.4172  139.4913  162.9349 C.ar    1  UNL1        0.0381
     32 C         137.9477  140.2497  159.3291 C.3     1  UNL1        0.2525
     33 O         137.2915  139.8764  160.6253 O.3     1  UNL1       -0.4714
@<TRIPOS>BOND
     1    32    33    1
     2    33    22    1
     3    22    23   ar
     4    23    24   ar
     5    24    25   ar
     6    25    26   ar
     7    26    27   ar
     8    27    28   ar
     9    28    29   ar
    10    29    21    1
    11    21    20    1
    12     1    20    1
    13     1     2    1
    14     2     3    1
    15     3     4    1
    16     4     7    1
    17     7     9    1
    18     9    10    1
    19    10    11   ar
    20    11    12   ar
    21    12    13   ar
    22    13    14   ar
    23    14    15   ar
    24    13    16    1
    25    16    17    1
    26    17    18    1
    27    18    19    1
    28     4     5    1
    29     5     6    1
    30    29    30   ar
    31    30    31   ar
    32    31    22   ar
    33    30    25   ar
    34     6     1    1
    35    15    10   ar
    36    19    12    1
    37     7     8    1
@<TRIPOS>MOLECULE
*****
 33 37 0 0 0
SMALL
GASTEIGER

@<TRIPOS>ATOM
      1 C         141.5708  138.3098  164.5248 C.3     1  UNL1        0.2355
      2 O         142.3451  138.0366  163.2694 O.3     1  UNL1       -0.3290
      3 C         143.6606  138.7185  163.0363 C.3     1  UNL1        0.1629
      4 C         144.2019  139.6736  164.0586 C.3     1  UNL1        0.1144
      5 C         143.4276  139.9467  165.3139 C.3     1  UNL1        0.1629
      6 O         142.1120  139.2648  165.5470 O.3     1  UNL1       -0.3290
      7 N         145.5174  140.3554  163.8255 N.3     1  UNL1       -0.2895
      8 H         145.9300  139.9244  162.9982 H       1  UNL1        0.1237
      9 C         145.5654  141.8391  163.6102 C.3     1  UNL1        0.1153
     10 C         144.5394  142.5045  162.7417 C.ar    1  UNL1        0.0782
     11 C         143.5486  143.4553  163.3453 C.ar    1  UNL1        0.0562
     12 C         142.5225  144.1208  162.4767 C.ar    1  UNL1        0.1752
     13 C         142.4873  143.8354  161.0045 C.ar    1  UNL1        0.1914
     14 C         143.4780  142.8846  160.4009 C.ar    1  UNL1        0.1384
     15 N         144.5041  142.2191  161.2694 N.ar    1  UNL1       -0.2434
     16 O         141.4612  144.5008  160.1359 O.3     1  UNL1       -0.4668
     17 C         140.4704  145.4516  160.7395 C.3     1  UNL1        0.2527
     18 C         140.5057  145.7370  162.2117 C.3     1  UNL1        0.2526
     19 O         141.5318  145.0716  163.0803 O.3     1  UNL1       -0.4683
     20 C         140.2552  137.6279  164.7579 C.3     1  UNL1        0.0660
     21 C         138.9839  138.2698  164.2869 C.3     1  UNL1        0.0316
     22 C         137.9610  142.6183  163.7447 C.ar    1  UNL1        0.1388
     23 C         137.8826  143.2041  162.3661 C.ar    1  UNL1        0.0384
     24 C         138.1451  142.3403  161.1681 C.ar    1  UNL1        0.0222
     25 C         138.4860  140.8908  161.3488 C.ar    1  UNL1        0.0812
     26 N         138.7485  140.0271  160.1509 N.ar    1  UNL1       -0.2439
     27 C         139.0895  138.5776  160.3316 C.ar    1  UNL1        0.0985
     28 C         139.1679  137.9918  161.7103 C.ar    1  UNL1        0.0164
     29 C         138.9054  138.8555  162.9082 C.ar    1  UNL1       -0.0189
     30 C         138.5645  140.3051  162.7275 C.ar    1  UNL1        0.0168
     31 C         138.3020  141.1688  163.9254 C.ar    1  UNL1        0.0381
     32 C         138.5217  144.7145  165.1735 C.3     1  UNL1        0.2525
     33 O         137.6985  143.4821  164.9426 O.3     1  UNL1       -0.4714
@<TRIPOS>BOND
     1    32    33    1
     2    33    22    1
     3    22    23   ar
     4    23    24   ar
     5    24    25   ar
     6    25    26   ar
     7    26    27   ar
     8    27    28   ar
     9    28    29   ar
    10    29    21    1
    11    21    20    1
    12     1    20    1
    13     1     2    1
    14     2     3    1
    15     3     4    1
    16     4     7    1
    17     7     9    1
    18     9    10    1
    19    10    11   ar
    20    11    12   ar
    21    12    13   ar
    22    13    14   ar
    23    14    15   ar
    24    13    16    1
    25    16    17    1
    26    17    18    1
    27    18    19    1
    28     4     5    1
    29     5     6    1
    30    29    30   ar
    31    30    31   ar
    32    31    22   ar
    33    30    25   ar
    34     6     1    1
    35    15    10   ar
    36    19    12    1
    37     7     8    1
@<TRIPOS>MOLECULE
*****
 33 37 0 0 0
SMALL
GASTEIGER

@<TRIPOS>ATOM
      1 C         141.5548  138.1251  164.0620 C.3     1  UNL1        0.2355
      2 O         142.0243  138.2677  162.6445 O.3     1  UNL1       -0.3290
      3 C         143.3189  138.9656  162.3499 C.3     1  UNL1        0.1629
      4 C         144.1441  139.5209  163.4727 C.3     1  UNL1        0.1144
      5 C         143.6746  139.3783  164.8902 C.3     1  UNL1        0.1629
      6 O         142.3799  138.6804  165.1848 O.3     1  UNL1       -0.3290
      7 N         145.4387  140.2188  163.1781 N.3     1  UNL1       -0.2895
      8 H         145.7585  139.8760  162.2722 H       1  UNL1        0.1237
      9 C         145.4860  141.7167  163.1156 C.3     1  UNL1        0.1153
     10 C         144.4218  142.4704  162.3745 C.ar    1  UNL1        0.0782
     11 C         143.4639  143.3479  163.1245 C.ar    1  UNL1        0.0562
     12 C         142.3996  144.1016  162.3834 C.ar    1  UNL1        0.1752
     13 C         142.2932  143.9778  160.8923 C.ar    1  UNL1        0.1914
     14 C         143.2511  143.1004  160.1423 C.ar    1  UNL1        0.1384
     15 N         144.3153  142.3467  160.8834 N.ar    1  UNL1       -0.2434
     16 O         141.2289  144.7316  160.1511 O.3     1  UNL1       -0.4668
     17 C         140.2710  145.6090  160.9011 C.3     1  UNL1        0.2527
     18 C         140.3774  145.7328  162.3923 C.3     1  UNL1        0.2526
     19 O         141.4417  144.9791  163.1334 O.3     1  UNL1       -0.4683
     20 C         140.2602  137.4272  164.3566 C.3     1  UNL1        0.0660
     21 C         139.1107  138.1940  164.9406 C.3     1  UNL1        0.0316
     22 C         140.4240  141.8324  167.2400 C.ar    1  UNL1        0.1388
     23 C         140.0980  143.2030  166.7252 C.ar    1  UNL1        0.0384
     24 C         139.3342  143.3608  165.4439 C.ar    1  UNL1        0.0222
     25 C         138.8964  142.1481  164.6775 C.ar    1  UNL1        0.0812
     26 N         138.1326  142.3059  163.3962 N.ar    1  UNL1       -0.2439
     27 C         137.6948  141.0931  162.6297 C.ar    1  UNL1        0.0985
     28 C         138.0209  139.7224  163.1445 C.ar    1  UNL1        0.0164
     29 C         138.7847  139.5646  164.4258 C.ar    1  UNL1       -0.0189
     30 C         139.2225  140.7775  165.1923 C.ar    1  UNL1        0.0168
     31 C         139.9863  140.6196  166.4735 C.ar    1  UNL1        0.0381
     32 C         142.5176  142.3479  168.6895 C.3     1  UNL1        0.2525
     33 O         141.1879  141.6746  168.5213 O.3     1  UNL1       -0.4714
@<TRIPOS>BOND
     1    32    33    1
     2    33    22    1
     3    22    23   ar
     4    23    24   ar
     5    24    25   ar
     6    25    26   ar
     7    26    27   ar
     8    27    28   ar
     9    28    29   ar
    10    29    21    1
    11    21    20    1
    12     1    20    1
    13     1     2    1
    14     2     3    1
    15     3     4    1
    16     4     7    1
    17     7     9    1
    18     9    10    1
    19    10    11   ar
    20    11    12   ar
    21    12    13   ar
    22    13    14   ar
    23    14    15   ar
    24    13    16    1
    25    16    17    1
    26    17    18    1
    27    18    19    1
    28     4     5    1
    29     5     6    1
    30    29    30   ar
    31    30    31   ar
    32    31    22   ar
    33    30    25   ar
    34     6     1    1
    35    15    10   ar
    36    19    12    1
    37     7     8    1
