@<TRIPOS>MOLECULE
*****
 27 29 0 0 0
SMALL
GASTEIGER

@<TRIPOS>ATOM
      1 C         138.7864  139.7288  165.6874 C.ar    1  UNL1        0.0252
      2 C         138.3344  140.9997  165.0313 C.ar    1  UNL1       -0.0009
      3 C         138.0272  141.0176  163.5632 C.ar    1  UNL1        0.0210
      4 C         138.1721  139.7647  162.7513 C.ar    1  UNL1        0.1397
      5 F         137.8649  139.7827  161.2831 F       1  UNL1       -0.2044
      6 C         138.6241  138.4939  163.4074 C.ar    1  UNL1        0.0587
      7 C         138.9313  138.4759  164.8755 C.ar    1  UNL1        0.1401
      8 F         139.3834  137.2050  165.5317 F       1  UNL1       -0.2044
      9 C         137.7684  139.0080  167.1581 C.3     1  UNL1        0.0291
     10 C         139.0936  139.7109  167.1556 C.3     1  UNL1        0.1080
     11 C         140.3120  140.4199  166.6432 C.3     1  UNL1        0.0388
     12 C         141.3775  140.8669  167.5998 C.3     1  UNL1        0.0671
     13 S         141.2244  140.6048  169.0688 S.3     1  UNL1       -0.0807
     14 C         140.0059  139.8958  169.5812 C.2     1  UNL1        0.1482
     15 N         139.8529  139.6337  171.0502 N.pl3   1  UNL1       -0.3380
     16 N         138.9405  139.4488  168.6246 N.2     1  UNL1       -0.2509
     17 H         140.5521  139.9271  171.6780 H       1  UNL1        0.1442
     18 H         139.0531  139.1683  171.3865 H       1  UNL1        0.1442
     19 C         137.5751  142.2885  162.9070 C.3     1  UNL1        0.0979
     20 N         137.5930  143.5767  163.6752 N.3     1  UNL1       -0.2914
     21 H         137.3472  143.3485  164.6385 H       1  UNL1        0.1236
     22 C         138.8461  144.3992  163.7312 C.3     1  UNL1        0.1047
     23 C         140.0442  145.1758  163.2713 C.3     1  UNL1        0.0215
     24 C         139.1228  144.5525  162.2650 C.3     1  UNL1        0.0215
     25 C         139.0045  144.5316  165.2170 C.3     1  UNL1        0.3311
     26 F         138.1594  145.5103  165.9771 F       1  UNL1       -0.1970
     27 F         140.0081  143.6852  165.9425 F       1  UNL1       -0.1970
@<TRIPOS>BOND
     1    10     9    1
     2    10     1    1
     3     1     2   ar
     4     2     3   ar
     5     3    19    1
     6    19    20    1
     7    20    22    1
     8    22    25    1
     9    25    26    1
    10    25    27    1
    11    22    23    1
    12    23    24    1
    13     3     4   ar
    14     4     5    1
    15     4     6   ar
    16     6     7   ar
    17     7     8    1
    18    10    11    1
    19    11    12    1
    20    12    13    1
    21    13    14    1
    22    14    15    1
    23    14    16    2
    24    16    10    1
    25     7     1   ar
    26    24    22    1
    27    20    21    1
    28    15    17    1
    29    15    18    1
@<TRIPOS>MOLECULE
*****
 27 29 0 0 0
SMALL
GASTEIGER

@<TRIPOS>ATOM
      1 C         140.3708  142.1212  166.4848 C.ar    1  UNL1        0.0252
      2 C         139.8320  143.3287  165.7766 C.ar    1  UNL1       -0.0009
      3 C         138.7069  143.1828  164.7954 C.ar    1  UNL1        0.0210
      4 C         138.1205  141.8294  164.5224 C.ar    1  UNL1        0.1397
      5 F         136.9953  141.6835  163.5412 F       1  UNL1       -0.2044
      6 C         138.6593  140.6219  165.2306 C.ar    1  UNL1        0.0587
      7 C         139.7844  140.7678  166.2118 C.ar    1  UNL1        0.1401
      8 F         140.3233  139.5603  166.9201 F       1  UNL1       -0.2044
      9 C         142.2762  142.0054  166.2119 C.3     1  UNL1        0.0291
     10 C         141.4959  142.2671  167.4660 C.3     1  UNL1        0.1080
     11 C         140.3249  142.4781  168.3793 C.3     1  UNL1        0.0388
     12 C         140.5500  142.7440  169.8383 C.3     1  UNL1        0.0671
     13 S         141.9462  142.7990  170.3839 S.3     1  UNL1       -0.0807
     14 C         143.1172  142.5880  169.4707 C.2     1  UNL1        0.1482
     15 N         144.5134  142.6430  170.0163 N.pl3   1  UNL1       -0.3380
     16 N         142.8921  142.3221  168.0117 N.2     1  UNL1       -0.2509
     17 H         144.6611  142.8176  170.9739 H       1  UNL1        0.1442
     18 H         145.2820  142.5046  169.4169 H       1  UNL1        0.1442
     19 C         138.1680  144.3903  164.0871 C.3     1  UNL1        0.0979
     20 N         138.1943  144.4548  162.5887 N.3     1  UNL1       -0.2914
     21 H         137.7581  145.3382  162.3243 H       1  UNL1        0.1236
     22 C         139.5020  144.3817  161.8577 C.3     1  UNL1        0.1047
     23 C         140.5807  143.8771  160.9456 C.3     1  UNL1        0.0215
     24 C         139.2967  143.1140  161.0827 C.3     1  UNL1        0.0215
     25 C         140.1615  145.6241  162.3788 C.3     1  UNL1        0.3311
     26 F         141.2456  145.5214  163.4104 F       1  UNL1       -0.1970
     27 F         139.7370  146.9691  161.8684 F       1  UNL1       -0.1970
@<TRIPOS>BOND
     1    10     9    1
     2    10     1    1
     3     1     2   ar
     4     2     3   ar
     5     3    19    1
     6    19    20    1
     7    20    22    1
     8    22    25    1
     9    25    26    1
    10    25    27    1
    11    22    23    1
    12    23    24    1
    13     3     4   ar
    14     4     5    1
    15     4     6   ar
    16     6     7   ar
    17     7     8    1
    18    10    11    1
    19    11    12    1
    20    12    13    1
    21    13    14    1
    22    14    15    1
    23    14    16    2
    24    16    10    1
    25     7     1   ar
    26    24    22    1
    27    20    21    1
    28    15    17    1
    29    15    18    1
@<TRIPOS>MOLECULE
*****
 27 29 0 0 0
SMALL
GASTEIGER

@<TRIPOS>ATOM
      1 C         142.5708  141.6370  165.7261 C.ar    1  UNL1        0.0252
      2 C         142.9303  142.1887  167.0738 C.ar    1  UNL1       -0.0009
      3 C         142.9636  141.2842  168.2699 C.ar    1  UNL1        0.0210
      4 C         142.6374  139.8280  168.1183 C.ar    1  UNL1        0.1397
      5 F         142.6707  138.9234  169.3145 F       1  UNL1       -0.2044
      6 C         142.2778  139.2763  166.7706 C.ar    1  UNL1        0.0587
      7 C         142.2445  140.1808  165.5745 C.ar    1  UNL1        0.1401
      8 F         141.8850  139.6291  164.2267 F       1  UNL1       -0.2044
      9 C         141.1200  142.6800  165.0008 C.3     1  UNL1        0.0291
     10 C         142.5375  142.5416  164.5299 C.3     1  UNL1        0.1080
     11 C         143.9665  142.0890  164.4745 C.3     1  UNL1        0.0388
     12 C         144.8699  142.5890  163.3865 C.3     1  UNL1        0.0671
     13 S         144.3443  143.5416  162.3538 S.3     1  UNL1       -0.0807
     14 C         142.9153  143.9942  162.4092 C.2     1  UNL1        0.1482
     15 N         142.3896  144.9468  161.3766 N.pl3   1  UNL1       -0.3380
     16 N         142.0119  143.4942  163.4973 N.2     1  UNL1       -0.2509
     17 H         142.9826  145.2750  160.6625 H       1  UNL1        0.1442
     18 H         141.4517  145.2439  161.4130 H       1  UNL1        0.1442
     19 C         143.3232  141.8359  169.6177 C.3     1  UNL1        0.0979
     20 N         142.3761  142.7569  170.3280 N.3     1  UNL1       -0.2914
     21 H         142.5177  143.6867  169.9331 H       1  UNL1        0.1236
     22 C         140.9005  142.4904  170.2899 C.3     1  UNL1        0.1047
     23 C         139.5848  141.8084  170.5223 C.3     1  UNL1        0.0215
     24 C         140.8487  141.2017  171.0556 C.3     1  UNL1        0.0215
     25 C         140.4398  143.6866  169.5108 C.3     1  UNL1        0.3311
     26 F         140.1411  143.5584  168.0465 F       1  UNL1       -0.1970
     27 F         140.2778  145.0110  170.1962 F       1  UNL1       -0.1970
@<TRIPOS>BOND
     1    10     9    1
     2    10     1    1
     3     1     2   ar
     4     2     3   ar
     5     3    19    1
     6    19    20    1
     7    20    22    1
     8    22    25    1
     9    25    26    1
    10    25    27    1
    11    22    23    1
    12    23    24    1
    13     3     4   ar
    14     4     5    1
    15     4     6   ar
    16     6     7   ar
    17     7     8    1
    18    10    11    1
    19    11    12    1
    20    12    13    1
    21    13    14    1
    22    14    15    1
    23    14    16    2
    24    16    10    1
    25     7     1   ar
    26    24    22    1
    27    20    21    1
    28    15    17    1
    29    15    18    1
@<TRIPOS>MOLECULE
*****
 27 29 0 0 0
SMALL
GASTEIGER

@<TRIPOS>ATOM
      1 C         141.7415  139.8428  166.4894 C.ar    1  UNL1        0.0252
      2 C         140.3393  140.1459  166.0512 C.ar    1  UNL1       -0.0009
      3 C         139.6841  139.3032  164.9975 C.ar    1  UNL1        0.0210
      4 C         140.4311  138.1573  164.3819 C.ar    1  UNL1        0.1397
      5 F         139.7759  137.3145  163.3280 F       1  UNL1       -0.2044
      6 C         141.8333  137.8541  164.8200 C.ar    1  UNL1        0.0587
      7 C         142.4884  138.6969  165.8738 C.ar    1  UNL1        0.1401
      8 F         143.8907  138.3937  166.3120 F       1  UNL1       -0.2044
      9 C         142.7219  141.4950  166.3229 C.3     1  UNL1        0.0291
     10 C         142.3967  140.6855  167.5432 C.3     1  UNL1        0.1080
     11 C         141.8440  139.5834  168.3975 C.3     1  UNL1        0.0388
     12 C         142.0595  139.6052  169.8818 C.3     1  UNL1        0.0671
     13 S         142.8277  140.7290  170.5118 S.3     1  UNL1       -0.0807
     14 C         143.3804  141.8311  169.6575 C.2     1  UNL1        0.1482
     15 N         144.1485  142.9550  170.2875 N.pl3   1  UNL1       -0.3380
     16 N         143.1649  141.8094  168.1732 N.2     1  UNL1       -0.2509
     17 H         144.2899  142.9693  171.2617 H       1  UNL1        0.1442
     18 H         144.5113  143.6784  169.7268 H       1  UNL1        0.1442
     19 C         138.2819  139.6063  164.5592 C.3     1  UNL1        0.0979
     20 N         137.7054  140.9731  164.7821 N.3     1  UNL1       -0.2914
     21 H         138.1259  141.3339  165.6385 H       1  UNL1        0.1236
     22 C         137.8708  142.0364  163.7372 C.3     1  UNL1        0.1047
     23 C         137.8878  142.7005  162.3923 C.3     1  UNL1        0.0215
     24 C         137.5011  141.2560  162.5107 C.3     1  UNL1        0.0215
     25 C         138.2980  143.1861  164.6008 C.3     1  UNL1        0.3311
     26 F         137.2992  144.2271  165.0115 F       1  UNL1       -0.1970
     27 F         139.7238  143.2947  165.0537 F       1  UNL1       -0.1970
@<TRIPOS>BOND
     1    10     9    1
     2    10     1    1
     3     1     2   ar
     4     2     3   ar
     5     3    19    1
     6    19    20    1
     7    20    22    1
     8    22    25    1
     9    25    26    1
    10    25    27    1
    11    22    23    1
    12    23    24    1
    13     3     4   ar
    14     4     5    1
    15     4     6   ar
    16     6     7   ar
    17     7     8    1
    18    10    11    1
    19    11    12    1
    20    12    13    1
    21    13    14    1
    22    14    15    1
    23    14    16    2
    24    16    10    1
    25     7     1   ar
    26    24    22    1
    27    20    21    1
    28    15    17    1
    29    15    18    1
@<TRIPOS>MOLECULE
*****
 27 29 0 0 0
SMALL
GASTEIGER

@<TRIPOS>ATOM
      1 C         140.5431  141.4798  166.5219 C.ar    1  UNL1        0.0252
      2 C         140.1525  140.0450  166.3249 C.ar    1  UNL1       -0.0009
      3 C         139.0698  139.6896  165.3495 C.ar    1  UNL1        0.0210
      4 C         138.3776  140.7690  164.5712 C.ar    1  UNL1        0.1397
      5 F         137.2948  140.4136  163.5958 F       1  UNL1       -0.2044
      6 C         138.7682  142.2038  164.7682 C.ar    1  UNL1        0.0587
      7 C         139.8509  142.5592  165.7435 C.ar    1  UNL1        0.1401
      8 F         140.2416  143.9940  165.9406 F       1  UNL1       -0.2044
      9 C         142.4448  141.6537  166.2537 C.3     1  UNL1        0.0291
     10 C         141.6259  141.8352  167.4973 C.3     1  UNL1        0.1080
     11 C         140.4310  141.8932  168.4021 C.3     1  UNL1        0.0388
     12 C         140.6031  142.2437  169.8504 C.3     1  UNL1        0.0671
     13 S         141.9704  142.5361  170.3938 S.3     1  UNL1       -0.0807
     14 C         143.1653  142.4780  169.4890 C.2     1  UNL1        0.1482
     15 N         144.5325  142.7704  170.0325 N.pl3   1  UNL1       -0.3380
     16 N         142.9931  142.1276  168.0407 N.2     1  UNL1       -0.2509
     17 H         144.6455  143.0004  170.9830 H       1  UNL1        0.1442
     18 H         145.3168  142.7323  169.4386 H       1  UNL1        0.1442
     19 C         138.6792  138.2548  165.1525 C.3     1  UNL1        0.0979
     20 N         138.8834  137.5982  163.8194 N.3     1  UNL1       -0.2914
     21 H         138.1712  137.9745  163.1936 H       1  UNL1        0.1236
     22 C         140.1982  137.7336  163.1102 C.3     1  UNL1        0.1047
     23 C         141.6665  137.6132  162.8280 C.3     1  UNL1        0.0215
     24 C         141.0967  137.0438  164.0934 C.3     1  UNL1        0.0215
     25 C         139.7563  138.4706  161.8807 C.3     1  UNL1        0.3311
     26 F         139.8986  139.9621  161.8085 F       1  UNL1       -0.1970
     27 F         139.1721  137.7161  160.7234 F       1  UNL1       -0.1970
@<TRIPOS>BOND
     1    10     9    1
     2    10     1    1
     3     1     2   ar
     4     2     3   ar
     5     3    19    1
     6    19    20    1
     7    20    22    1
     8    22    25    1
     9    25    26    1
    10    25    27    1
    11    22    23    1
    12    23    24    1
    13     3     4   ar
    14     4     5    1
    15     4     6   ar
    16     6     7   ar
    17     7     8    1
    18    10    11    1
    19    11    12    1
    20    12    13    1
    21    13    14    1
    22    14    15    1
    23    14    16    2
    24    16    10    1
    25     7     1   ar
    26    24    22    1
    27    20    21    1
    28    15    17    1
    29    15    18    1
@<TRIPOS>MOLECULE
*****
 27 29 0 0 0
SMALL
GASTEIGER

@<TRIPOS>ATOM
      1 C         140.0054  141.1393  166.5886 C.ar    1  UNL1        0.0252
      2 C         140.0083  142.6051  166.2703 C.ar    1  UNL1       -0.0009
      3 C         139.1376  143.1354  165.1701 C.ar    1  UNL1        0.0210
      4 C         138.2640  142.1999  164.3881 C.ar    1  UNL1        0.1397
      5 F         137.3932  142.7303  163.2878 F       1  UNL1       -0.2044
      6 C         138.2610  140.7341  164.7063 C.ar    1  UNL1        0.0587
      7 C         139.1317  140.2038  165.8065 C.ar    1  UNL1        0.1401
      8 F         139.1288  138.7379  166.1248 F       1  UNL1       -0.2044
      9 C         141.8453  140.5633  166.5448 C.3     1  UNL1        0.0291
     10 C         140.8762  140.6089  167.6888 C.3     1  UNL1        0.1080
     11 C         139.6047  140.8386  168.4507 C.3     1  UNL1        0.0388
     12 C         139.5405  140.5222  169.9156 C.3     1  UNL1        0.0671
     13 S         140.7478  139.9760  170.6185 S.3     1  UNL1       -0.0807
     14 C         142.0193  139.7462  169.8566 C.2     1  UNL1        0.1482
     15 N         143.2266  139.2000  170.5595 N.pl3   1  UNL1       -0.3380
     16 N         142.0835  140.0627  168.3918 N.2     1  UNL1       -0.2509
     17 H         143.1845  138.9923  171.5209 H       1  UNL1        0.1442
     18 H         144.0611  139.0492  170.0594 H       1  UNL1        0.1442
     19 C         139.1405  144.6013  164.8518 C.3     1  UNL1        0.0979
     20 N         140.4207  145.2832  164.4693 N.3     1  UNL1       -0.2914
     21 H         141.0944  145.0804  165.2078 H       1  UNL1        0.1236
     22 C         141.0895  144.9481  163.1692 C.3     1  UNL1        0.1047
     23 C         142.1340  144.4747  162.2023 C.3     1  UNL1        0.0215
     24 C         142.4035  144.4334  163.6773 C.3     1  UNL1        0.0215
     25 C         140.0076  145.3465  162.2095 C.3     1  UNL1        0.3311
     26 F         139.7751  146.7959  161.9010 F       1  UNL1       -0.1970
     27 F         139.1583  144.2955  161.5584 F       1  UNL1       -0.1970
@<TRIPOS>BOND
     1    10     9    1
     2    10     1    1
     3     1     2   ar
     4     2     3   ar
     5     3    19    1
     6    19    20    1
     7    20    22    1
     8    22    25    1
     9    25    26    1
    10    25    27    1
    11    22    23    1
    12    23    24    1
    13     3     4   ar
    14     4     5    1
    15     4     6   ar
    16     6     7   ar
    17     7     8    1
    18    10    11    1
    19    11    12    1
    20    12    13    1
    21    13    14    1
    22    14    15    1
    23    14    16    2
    24    16    10    1
    25     7     1   ar
    26    24    22    1
    27    20    21    1
    28    15    17    1
    29    15    18    1
@<TRIPOS>MOLECULE
*****
 27 29 0 0 0
SMALL
GASTEIGER

@<TRIPOS>ATOM
      1 C         141.3382  141.0360  166.4764 C.ar    1  UNL1        0.0252
      2 C         141.1136  142.4653  166.0805 C.ar    1  UNL1       -0.0009
      3 C         141.5118  142.9361  164.7131 C.ar    1  UNL1        0.0210
      4 C         142.1346  141.9778  163.7417 C.ar    1  UNL1        0.1397
      5 F         142.5328  142.4488  162.3743 F       1  UNL1       -0.2044
      6 C         142.3591  140.5485  164.1376 C.ar    1  UNL1        0.0587
      7 C         141.9610  140.0776  165.5049 C.ar    1  UNL1        0.1401
      8 F         142.1855  138.6483  165.9008 F       1  UNL1       -0.2044
      9 C         139.6898  140.2390  167.0816 C.3     1  UNL1        0.0291
     10 C         140.9400  140.5650  167.8438 C.3     1  UNL1        0.1080
     11 C         142.3284  141.0547  168.1310 C.3     1  UNL1        0.0388
     12 C         142.8845  140.9601  169.5209 C.3     1  UNL1        0.0671
     13 S         142.0521  140.3759  170.6236 S.3     1  UNL1       -0.0807
     14 C         140.6637  139.8863  170.3364 C.2     1  UNL1        0.1482
     15 N         139.8313  139.3021  171.4390 N.pl3   1  UNL1       -0.3380
     16 N         140.1076  139.9808  168.9465 N.2     1  UNL1       -0.2509
     17 H         140.1963  139.2400  172.3513 H       1  UNL1        0.1442
     18 H         138.9200  138.9807  171.2505 H       1  UNL1        0.1442
     19 C         141.2873  144.3655  164.3172 C.3     1  UNL1        0.0979
     20 N         139.8970  144.9282  164.2959 N.3     1  UNL1       -0.2914
     21 H         139.9679  145.8741  163.9207 H       1  UNL1        0.1236
     22 C         138.8186  144.2337  163.5182 C.3     1  UNL1        0.1047
     23 C         138.0399  143.7076  162.3491 C.3     1  UNL1        0.0215
     24 C         139.3069  144.4774  162.1210 C.3     1  UNL1        0.0215
     25 C         137.9558  143.7488  164.6454 C.3     1  UNL1        0.3311
     26 F         137.1132  144.7210  165.4167 F       1  UNL1       -0.1970
     27 F         137.9357  142.2918  165.0012 F       1  UNL1       -0.1970
@<TRIPOS>BOND
     1    10     9    1
     2    10     1    1
     3     1     2   ar
     4     2     3   ar
     5     3    19    1
     6    19    20    1
     7    20    22    1
     8    22    25    1
     9    25    26    1
    10    25    27    1
    11    22    23    1
    12    23    24    1
    13     3     4   ar
    14     4     5    1
    15     4     6   ar
    16     6     7   ar
    17     7     8    1
    18    10    11    1
    19    11    12    1
    20    12    13    1
    21    13    14    1
    22    14    15    1
    23    14    16    2
    24    16    10    1
    25     7     1   ar
    26    24    22    1
    27    20    21    1
    28    15    17    1
    29    15    18    1
@<TRIPOS>MOLECULE
*****
 27 29 0 0 0
SMALL
GASTEIGER

@<TRIPOS>ATOM
      1 C         141.9623  140.4013  166.7109 C.ar    1  UNL1        0.0252
      2 C         141.3890  139.1213  166.1790 C.ar    1  UNL1       -0.0009
      3 C         141.9959  138.4729  164.9703 C.ar    1  UNL1        0.0210
      4 C         143.1762  139.1043  164.2935 C.ar    1  UNL1        0.1397
      5 F         143.7832  138.4558  163.0847 F       1  UNL1       -0.2044
      6 C         143.7496  140.3843  164.8254 C.ar    1  UNL1        0.0587
      7 C         143.1427  141.0327  166.0341 C.ar    1  UNL1        0.1401
      8 F         143.7160  142.3127  166.5661 F       1  UNL1       -0.2044
      9 C         140.5128  141.6663  166.8426 C.3     1  UNL1        0.0291
     10 C         141.3554  141.0498  167.9197 C.3     1  UNL1        0.1080
     11 C         142.4087  140.2081  168.5770 C.3     1  UNL1        0.0388
     12 C         142.5624  140.2290  170.0689 C.3     1  UNL1        0.0671
     13 S         141.6629  141.0916  170.9036 S.3     1  UNL1       -0.0807
     14 C         140.6096  141.9334  170.2463 C.2     1  UNL1        0.1482
     15 N         139.7100  142.7960  171.0810 N.pl3   1  UNL1       -0.3380
     16 N         140.4558  141.9125  168.7544 N.2     1  UNL1       -0.2509
     17 H         139.8109  142.8097  172.0602 H       1  UNL1        0.1442
     18 H         139.0187  143.3485  170.6496 H       1  UNL1        0.1442
     19 C         141.4225  137.1929  164.4383 C.3     1  UNL1        0.0979
     20 N         141.0892  137.0689  162.9811 N.3     1  UNL1       -0.2914
     21 H         140.8034  136.1022  162.8256 H       1  UNL1        0.1236
     22 C         140.0250  137.9374  162.3786 C.3     1  UNL1        0.1047
     23 C         138.6808  138.5585  162.1391 C.3     1  UNL1        0.0215
     24 C         138.8494  137.5267  163.2147 C.3     1  UNL1        0.0215
     25 C         140.8311  138.6497  161.3331 C.3     1  UNL1        0.3311
     26 F         141.5001  139.9518  161.6601 F       1  UNL1       -0.1970
     27 F         140.9681  138.0599  159.9608 F       1  UNL1       -0.1970
@<TRIPOS>BOND
     1    10     9    1
     2    10     1    1
     3     1     2   ar
     4     2     3   ar
     5     3    19    1
     6    19    20    1
     7    20    22    1
     8    22    25    1
     9    25    26    1
    10    25    27    1
    11    22    23    1
    12    23    24    1
    13     3     4   ar
    14     4     5    1
    15     4     6   ar
    16     6     7   ar
    17     7     8    1
    18    10    11    1
    19    11    12    1
    20    12    13    1
    21    13    14    1
    22    14    15    1
    23    14    16    2
    24    16    10    1
    25     7     1   ar
    26    24    22    1
    27    20    21    1
    28    15    17    1
    29    15    18    1
@<TRIPOS>MOLECULE
*****
 27 29 0 0 0
SMALL
GASTEIGER

@<TRIPOS>ATOM
      1 C         139.3180  142.3412  164.1545 C.ar    1  UNL1        0.0252
      2 C         140.5480  142.2209  163.3044 C.ar    1  UNL1       -0.0009
      3 C         141.0075  143.3873  162.4809 C.ar    1  UNL1        0.0210
      4 C         140.2371  144.6741  162.5075 C.ar    1  UNL1        0.1397
      5 F         140.6968  145.8406  161.6840 F       1  UNL1       -0.2044
      6 C         139.0072  144.7944  163.3576 C.ar    1  UNL1        0.0587
      7 C         138.5476  143.6280  164.1811 C.ar    1  UNL1        0.1401
      8 F         137.3176  143.7483  165.0312 F       1  UNL1       -0.2044
      9 C         138.0071  140.9837  163.7578 C.3     1  UNL1        0.0291
     10 C         138.8584  141.1747  164.9780 C.3     1  UNL1        0.1080
     11 C         139.8693  141.7708  165.9121 C.3     1  UNL1        0.0388
     12 C         140.1250  141.1342  167.2460 C.3     1  UNL1        0.0671
     13 S         139.3697  139.9014  167.6458 S.3     1  UNL1       -0.0807
     14 C         138.3588  139.3053  166.7116 C.2     1  UNL1        0.1482
     15 N         137.6035  138.0724  167.1114 N.pl3   1  UNL1       -0.3380
     16 N         138.1031  139.9419  165.3777 N.2     1  UNL1       -0.2509
     17 H         137.7712  137.6546  167.9869 H       1  UNL1        0.1442
     18 H         136.9400  137.6812  166.4982 H       1  UNL1        0.1442
     19 C         142.2376  143.2670  161.6308 C.3     1  UNL1        0.0979
     20 N         143.5151  143.9237  162.0629 N.3     1  UNL1       -0.2914
     21 H         143.3960  144.9258  161.9142 H       1  UNL1        0.1236
     22 C         144.0094  143.7502  163.4684 C.3     1  UNL1        0.1047
     23 C         144.3243  144.0650  164.9008 C.3     1  UNL1        0.0215
     24 C         143.6642  145.0959  164.0340 C.3     1  UNL1        0.0215
     25 C         144.5264  142.3442  163.3910 C.3     1  UNL1        0.3311
     26 F         145.9107  142.0814  162.8766 F       1  UNL1       -0.1970
     27 F         143.6591  141.2011  163.8279 F       1  UNL1       -0.1970
@<TRIPOS>BOND
     1    10     9    1
     2    10     1    1
     3     1     2   ar
     4     2     3   ar
     5     3    19    1
     6    19    20    1
     7    20    22    1
     8    22    25    1
     9    25    26    1
    10    25    27    1
    11    22    23    1
    12    23    24    1
    13     3     4   ar
    14     4     5    1
    15     4     6   ar
    16     6     7   ar
    17     7     8    1
    18    10    11    1
    19    11    12    1
    20    12    13    1
    21    13    14    1
    22    14    15    1
    23    14    16    2
    24    16    10    1
    25     7     1   ar
    26    24    22    1
    27    20    21    1
    28    15    17    1
    29    15    18    1
