@<TRIPOS>MOLECULE
*****
 33 37 0 0 0
SMALL
GASTEIGER

@<TRIPOS>ATOM
      1 C         138.6991  138.0044  165.1763 C.3     1  UNL1        0.0473
      2 C         139.3619  140.8212  165.3287 C.3     1  UNL1        0.0002
      3 C         139.2727  140.3656  166.7550 C.3     1  UNL1        0.0001
      4 C         139.0304  139.3918  165.6402 C.3     1  UNL1        0.0037
      5 C         140.3337  145.1744  161.3156 C.2     1  UNL1        0.4046
      6 O         139.4050  146.3503  161.2449 O.2     1  UNL1       -0.2262
      7 N         140.0907  144.0861  162.3189 N.am    1  UNL1       -0.2460
      8 C         138.9191  144.1736  163.2515 C.3     1  UNL1        0.0967
      9 C         138.6762  143.0853  164.2547 C.3     1  UNL1        0.0217
     10 C         139.6049  141.9095  164.3254 C.3     1  UNL1        0.0034
     11 C         140.7765  141.8220  163.3929 C.3     1  UNL1        0.0217
     12 C         141.0194  142.9103  162.3896 C.3     1  UNL1        0.0967
     13 O         141.5053  145.0869  160.3830 O.3     1  UNL1       -0.4418
     14 C         142.8065  143.5273  159.3079 C.3     1  UNL1        0.0437
     15 C         141.4543  144.1674  159.1989 C.3     1  UNL1        0.1378
     16 C         140.9338  143.4703  157.9770 C.3     1  UNL1        0.0437
     17 C         140.0845  144.4883  158.6788 C.3     1  UNL1        0.0437
     18 C         139.5050  137.3664  164.0837 C.3     1  UNL1        0.2054
     19 O         140.9286  136.9675  164.3371 O.3     1  UNL1       -0.4754
     20 C         142.0333  137.9621  164.1360 C.ar    1  UNL1        0.1408
     21 C         142.5154  138.7910  165.2895 C.ar    1  UNL1        0.0367
     22 C         143.6201  139.7856  165.0885 C.ar    1  UNL1        0.0016
     23 C         144.2427  139.9513  163.7338 C.ar    1  UNL1        0.0146
     24 C         143.7607  139.1224  162.5804 C.ar    1  UNL1        0.1396
     25 F         144.3833  139.2880  161.2258 F       1  UNL1       -0.2044
     26 C         142.6560  138.1278  162.7815 C.ar    1  UNL1        0.0662
     27 C         145.3474  140.9459  163.5327 C.3     1  UNL1        0.1138
     28 C         145.1134  142.1674  162.6941 C.2     1  UNL1        0.2301
     29 O         145.5222  142.1759  161.2510 O.2     1  UNL1       -0.2745
     30 N         144.4705  143.3803  163.2987 N.am    1  UNL1       -0.2791
     31 C         144.0872  144.7401  162.7948 C.3     1  UNL1        0.0952
     32 C         143.5613  145.0956  164.1538 C.3     1  UNL1        0.0430
     33 C         143.9445  143.7358  164.6578 C.3     1  UNL1        0.0952
@<TRIPOS>BOND
     1    14    15    1
     2    15    13    1
     3    13     5    1
     4     5     6    2
     5     5     7   am
     6     7     8    1
     7     8     9    1
     8     9    10    1
     9     2    10    1
    10     2     3    1
    11     3     4    1
    12     4     1    1
    13     1    18    1
    14    18    19    1
    15    19    20    1
    16    20    21   ar
    17    21    22   ar
    18    22    23   ar
    19    23    27    1
    20    27    28    1
    21    28    29    2
    22    28    30   am
    23    30    31    1
    24    31    32    1
    25    32    33    1
    26    23    24   ar
    27    24    25    1
    28    24    26   ar
    29    10    11    1
    30    11    12    1
    31    15    16    1
    32    16    17    1
    33    17    15    1
    34    12     7    1
    35     4     2    1
    36    26    20   ar
    37    33    30    1
@<TRIPOS>MOLECULE
*****
 33 37 0 0 0
SMALL
GASTEIGER

@<TRIPOS>ATOM
      1 C         140.2760  142.1794  170.5521 C.3     1  UNL1        0.0473
      2 C         138.8947  140.2436  168.8964 C.3     1  UNL1        0.0002
      3 C         138.2962  140.0834  170.2624 C.3     1  UNL1        0.0001
      4 C         139.3754  141.0991  170.0309 C.3     1  UNL1        0.0037
      5 C         139.1668  138.6377  163.1216 C.2     1  UNL1        0.4046
      6 O         138.4052  137.4385  162.6400 O.2     1  UNL1       -0.2262
      7 N         139.0988  139.0392  164.5654 N.am    1  UNL1       -0.2460
      8 C         138.2692  138.2415  165.5273 C.3     1  UNL1        0.0967
      9 C         138.2012  138.6429  166.9710 C.3     1  UNL1        0.0217
     10 C         138.9628  139.8421  167.4526 C.3     1  UNL1        0.0034
     11 C         139.7923  140.6398  166.4907 C.3     1  UNL1        0.0217
     12 C         139.8603  140.2383  165.0470 C.3     1  UNL1        0.0967
     13 O         139.9963  139.4354  162.1596 O.3     1  UNL1       -0.4418
     14 C         140.7005  139.2437  159.9805 C.3     1  UNL1        0.0437
     15 C         141.0658  138.7606  161.3528 C.3     1  UNL1        0.1378
     16 C         142.2620  137.9180  161.0225 C.3     1  UNL1        0.0437
     17 C         141.8023  138.0431  162.4449 C.3     1  UNL1        0.0437
     18 C         141.7602  141.9657  170.5890 C.3     1  UNL1        0.2054
     19 O         142.3504  140.7041  170.0320 O.3     1  UNL1       -0.4754
     20 C         142.7093  140.6222  168.5779 C.ar    1  UNL1        0.1408
     21 C         142.9474  141.8778  167.7923 C.ar    1  UNL1        0.0367
     22 C         143.3063  141.7959  166.3382 C.ar    1  UNL1        0.0016
     23 C         143.4271  140.4585  165.6696 C.ar    1  UNL1        0.0146
     24 C         143.1890  139.2031  166.4552 C.ar    1  UNL1        0.1396
     25 F         143.3097  137.8658  165.7866 F       1  UNL1       -0.2044
     26 C         142.8301  139.2850  167.9093 C.ar    1  UNL1        0.0662
     27 C         143.7860  140.3767  164.2155 C.3     1  UNL1        0.1138
     28 C         144.5604  141.4877  163.5704 C.2     1  UNL1        0.2301
     29 O         146.0574  141.4194  163.5059 O.2     1  UNL1       -0.2745
     30 N         143.8377  142.6670  162.9899 N.am    1  UNL1       -0.2791
     31 C         144.2539  143.9266  162.2898 C.3     1  UNL1        0.0952
     32 C         142.8157  144.3348  162.1690 C.3     1  UNL1        0.0430
     33 C         142.3993  143.0752  162.8692 C.3     1  UNL1        0.0952
@<TRIPOS>BOND
     1    14    15    1
     2    15    13    1
     3    13     5    1
     4     5     6    2
     5     5     7   am
     6     7     8    1
     7     8     9    1
     8     9    10    1
     9     2    10    1
    10     2     3    1
    11     3     4    1
    12     4     1    1
    13     1    18    1
    14    18    19    1
    15    19    20    1
    16    20    21   ar
    17    21    22   ar
    18    22    23   ar
    19    23    27    1
    20    27    28    1
    21    28    29    2
    22    28    30   am
    23    30    31    1
    24    31    32    1
    25    32    33    1
    26    23    24   ar
    27    24    25    1
    28    24    26   ar
    29    10    11    1
    30    11    12    1
    31    15    16    1
    32    16    17    1
    33    17    15    1
    34    12     7    1
    35     4     2    1
    36    26    20   ar
    37    33    30    1
@<TRIPOS>MOLECULE
*****
 33 37 0 0 0
SMALL
GASTEIGER

@<TRIPOS>ATOM
      1 C         139.4353  140.3039  168.7550 C.3     1  UNL1        0.0473
      2 C         139.0982  140.3763  165.8779 C.3     1  UNL1        0.0002
      3 C         138.7380  138.9757  166.2759 C.3     1  UNL1        0.0001
      4 C         139.1581  139.9674  167.3198 C.3     1  UNL1        0.0037
      5 C         139.7918  144.5553  161.6287 C.2     1  UNL1        0.4046
      6 O         138.9977  145.8264  161.6901 O.2     1  UNL1       -0.2262
      7 N         139.6184  143.5105  162.6910 N.am    1  UNL1       -0.2460
      8 C         138.6510  143.7369  163.8147 C.3     1  UNL1        0.0967
      9 C         138.4776  142.6921  164.8770 C.3     1  UNL1        0.0217
     10 C         139.2717  141.4210  164.8155 C.3     1  UNL1        0.0034
     11 C         140.2391  141.1947  163.6918 C.3     1  UNL1        0.0217
     12 C         140.4125  142.2394  162.6296 C.3     1  UNL1        0.0967
     13 O         140.7592  144.3289  160.5050 O.3     1  UNL1       -0.4418
     14 C         139.3066  143.1815  159.1431 C.3     1  UNL1        0.0437
     15 C         140.2733  144.3270  159.0858 C.3     1  UNL1        0.1378
     16 C         140.1231  144.7229  157.6468 C.3     1  UNL1        0.0437
     17 C         141.0712  145.4719  158.5358 C.3     1  UNL1        0.0437
     18 C         140.2585  141.5103  169.0970 C.3     1  UNL1        0.2054
     19 O         141.7558  141.4369  169.0413 O.3     1  UNL1       -0.4754
     20 C         142.4351  140.8953  167.8186 C.ar    1  UNL1        0.1408
     21 C         142.7338  141.8032  166.6624 C.ar    1  UNL1        0.0367
     22 C         143.4131  141.2616  165.4396 C.ar    1  UNL1        0.0016
     23 C         143.7938  139.8122  165.3730 C.ar    1  UNL1        0.0146
     24 C         143.4951  138.9044  166.5292 C.ar    1  UNL1        0.1396
     25 F         143.8758  137.4551  166.4625 F       1  UNL1       -0.2044
     26 C         142.8158  139.4460  167.7519 C.ar    1  UNL1        0.0662
     27 C         144.4732  139.2706  164.1502 C.3     1  UNL1        0.1138
     28 C         143.7446  139.2391  162.8394 C.2     1  UNL1        0.2301
     29 O         144.3309  139.9212  161.6389 O.2     1  UNL1       -0.2745
     30 N         142.4298  138.5256  162.7290 N.am    1  UNL1       -0.2791
     31 C         141.4420  138.2867  161.6258 C.3     1  UNL1        0.0952
     32 C         140.5704  137.5166  162.5729 C.3     1  UNL1        0.0430
     33 C         141.5582  137.7555  163.6762 C.3     1  UNL1        0.0952
@<TRIPOS>BOND
     1    14    15    1
     2    15    13    1
     3    13     5    1
     4     5     6    2
     5     5     7   am
     6     7     8    1
     7     8     9    1
     8     9    10    1
     9     2    10    1
    10     2     3    1
    11     3     4    1
    12     4     1    1
    13     1    18    1
    14    18    19    1
    15    19    20    1
    16    20    21   ar
    17    21    22   ar
    18    22    23   ar
    19    23    27    1
    20    27    28    1
    21    28    29    2
    22    28    30   am
    23    30    31    1
    24    31    32    1
    25    32    33    1
    26    23    24   ar
    27    24    25    1
    28    24    26   ar
    29    10    11    1
    30    11    12    1
    31    15    16    1
    32    16    17    1
    33    17    15    1
    34    12     7    1
    35     4     2    1
    36    26    20   ar
    37    33    30    1
@<TRIPOS>MOLECULE
*****
 33 37 0 0 0
SMALL
GASTEIGER

@<TRIPOS>ATOM
      1 C         139.8461  139.9243  167.9824 C.3     1  UNL1        0.0473
      2 C         140.3845  142.6027  167.0165 C.3     1  UNL1        0.0002
      3 C         140.6687  142.6564  168.4883 C.3     1  UNL1        0.0001
      4 C         140.2108  141.3740  167.8592 C.3     1  UNL1        0.0037
      5 C         140.1292  145.3165  161.6713 C.2     1  UNL1        0.4046
      6 O         139.0463  146.3151  161.3881 O.2     1  UNL1       -0.2262
      7 N         140.1930  144.6380  163.0076 N.am    1  UNL1       -0.2460
      8 C         139.1740  144.9582  164.0607 C.3     1  UNL1        0.0967
      9 C         139.2378  144.2798  165.3969 C.3     1  UNL1        0.0217
     10 C         140.3207  143.2812  165.6801 C.3     1  UNL1        0.0034
     11 C         141.3397  142.9610  164.6270 C.3     1  UNL1        0.0217
     12 C         141.2759  143.6394  163.2908 C.3     1  UNL1        0.0967
     13 O         141.1482  144.9963  160.6182 O.3     1  UNL1       -0.4418
     14 C         141.5056  145.5587  158.4188 C.3     1  UNL1        0.0437
     15 C         140.7045  144.5946  159.2427 C.3     1  UNL1        0.1378
     16 C         139.9828  143.8581  158.1534 C.3     1  UNL1        0.0437
     17 C         139.7495  143.4910  159.5890 C.3     1  UNL1        0.0437
     18 C         138.4090  139.5027  167.8984 C.3     1  UNL1        0.2054
     19 O         137.8873  138.8619  166.6465 O.3     1  UNL1       -0.4754
     20 C         138.6840  138.9367  165.3777 C.ar    1  UNL1        0.1408
     21 C         138.6290  140.1726  164.5293 C.ar    1  UNL1        0.0367
     22 C         139.4257  140.2474  163.2606 C.ar    1  UNL1        0.0016
     23 C         140.2772  139.0863  162.8401 C.ar    1  UNL1        0.0146
     24 C         140.3322  137.8505  163.6885 C.ar    1  UNL1        0.1396
     25 F         141.1837  136.6894  163.2680 F       1  UNL1       -0.2044
     26 C         139.5355  137.7757  164.9572 C.ar    1  UNL1        0.0662
     27 C         141.0739  139.1610  161.5714 C.3     1  UNL1        0.1138
     28 C         142.2052  140.1388  161.4527 C.2     1  UNL1        0.2301
     29 O         142.1861  141.1805  160.3736 O.2     1  UNL1       -0.2745
     30 N         143.3557  140.0749  162.4131 N.am    1  UNL1       -0.2791
     31 C         144.6232  140.8540  162.6033 C.3     1  UNL1        0.0952
     32 C         144.9826  139.9844  163.7713 C.3     1  UNL1        0.0430
     33 C         143.7151  139.2051  163.5812 C.3     1  UNL1        0.0952
@<TRIPOS>BOND
     1    14    15    1
     2    15    13    1
     3    13     5    1
     4     5     6    2
     5     5     7   am
     6     7     8    1
     7     8     9    1
     8     9    10    1
     9     2    10    1
    10     2     3    1
    11     3     4    1
    12     4     1    1
    13     1    18    1
    14    18    19    1
    15    19    20    1
    16    20    21   ar
    17    21    22   ar
    18    22    23   ar
    19    23    27    1
    20    27    28    1
    21    28    29    2
    22    28    30   am
    23    30    31    1
    24    31    32    1
    25    32    33    1
    26    23    24   ar
    27    24    25    1
    28    24    26   ar
    29    10    11    1
    30    11    12    1
    31    15    16    1
    32    16    17    1
    33    17    15    1
    34    12     7    1
    35     4     2    1
    36    26    20   ar
    37    33    30    1
@<TRIPOS>MOLECULE
*****
 33 37 0 0 0
SMALL
GASTEIGER

@<TRIPOS>ATOM
      1 C         137.9365  138.7077  166.9818 C.3     1  UNL1        0.0473
      2 C         139.8519  140.8544  166.6352 C.3     1  UNL1        0.0002
      3 C         139.9738  140.4541  168.0756 C.3     1  UNL1        0.0001
      4 C         138.9956  139.7508  167.1820 C.3     1  UNL1        0.0037
      5 C         141.5479  144.3273  162.0458 C.2     1  UNL1        0.4046
      6 O         143.0052  144.5765  161.7924 O.2     1  UNL1       -0.2262
      7 N         141.1239  143.4590  163.1932 N.am    1  UNL1       -0.2460
      8 C         142.1572  142.8400  164.0871 C.3     1  UNL1        0.0967
      9 C         141.7331  141.9718  165.2344 C.3     1  UNL1        0.0217
     10 C         140.2759  141.7226  165.4878 C.3     1  UNL1        0.0034
     11 C         139.2426  142.3416  164.5939 C.3     1  UNL1        0.0217
     12 C         139.6666  143.2098  163.4466 C.3     1  UNL1        0.0967
     13 O         140.5146  144.9463  161.1519 O.3     1  UNL1       -0.4418
     14 C         141.1911  145.4889  159.0237 C.3     1  UNL1        0.0437
     15 C         140.3599  144.4657  159.7393 C.3     1  UNL1        0.1378
     16 C         139.9166  143.6298  158.5754 C.3     1  UNL1        0.0437
     17 C         139.4751  143.2757  159.9646 C.3     1  UNL1        0.0437
     18 C         138.2392  137.4754  166.1820 C.3     1  UNL1        0.2054
     19 O         138.3321  137.5557  164.6870 O.3     1  UNL1       -0.4754
     20 C         139.6678  137.7295  164.0269 C.ar    1  UNL1        0.1408
     21 C         139.7645  137.7769  162.5307 C.ar    1  UNL1        0.0367
     22 C         141.1002  137.9507  161.8706 C.ar    1  UNL1        0.0016
     23 C         142.3392  138.0771  162.7067 C.ar    1  UNL1        0.0146
     24 C         142.2425  138.0297  164.2028 C.ar    1  UNL1        0.1396
     25 F         143.4814  138.1561  165.0388 F       1  UNL1       -0.2044
     26 C         140.9068  137.8559  164.8629 C.ar    1  UNL1        0.0662
     27 C         143.6749  138.2509  162.0466 C.3     1  UNL1        0.1138
     28 C         144.1085  139.6080  161.5771 C.2     1  UNL1        0.2301
     29 O         143.8721  140.0203  160.1544 O.2     1  UNL1       -0.2745
     30 N         144.7785  140.5527  162.5303 N.am    1  UNL1       -0.2791
     31 C         145.3328  141.9431  162.4319 C.3     1  UNL1        0.0952
     32 C         145.7261  141.8887  163.8783 C.3     1  UNL1        0.0430
     33 C         145.1718  140.4984  163.9769 C.3     1  UNL1        0.0952
@<TRIPOS>BOND
     1    14    15    1
     2    15    13    1
     3    13     5    1
     4     5     6    2
     5     5     7   am
     6     7     8    1
     7     8     9    1
     8     9    10    1
     9     2    10    1
    10     2     3    1
    11     3     4    1
    12     4     1    1
    13     1    18    1
    14    18    19    1
    15    19    20    1
    16    20    21   ar
    17    21    22   ar
    18    22    23   ar
    19    23    27    1
    20    27    28    1
    21    28    29    2
    22    28    30   am
    23    30    31    1
    24    31    32    1
    25    32    33    1
    26    23    24   ar
    27    24    25    1
    28    24    26   ar
    29    10    11    1
    30    11    12    1
    31    15    16    1
    32    16    17    1
    33    17    15    1
    34    12     7    1
    35     4     2    1
    36    26    20   ar
    37    33    30    1
@<TRIPOS>MOLECULE
*****
 33 37 0 0 0
SMALL
GASTEIGER

@<TRIPOS>ATOM
      1 C         143.0076  140.0009  170.3983 C.3     1  UNL1        0.0473
      2 C         143.1210  142.2513  168.5763 C.3     1  UNL1        0.0002
      3 C         143.9455  142.6669  169.7584 C.3     1  UNL1        0.0001
      4 C         143.2893  141.3183  169.7387 C.3     1  UNL1        0.0037
      5 C         140.8285  143.4463  163.1618 C.2     1  UNL1        0.4046
      6 O         141.7289  143.5120  161.9640 O.2     1  UNL1       -0.2262
      7 N         141.4016  143.1475  164.5155 N.am    1  UNL1       -0.2460
      8 C         142.8752  142.9146  164.6712 C.3     1  UNL1        0.0967
      9 C         143.4483  142.6158  166.0248 C.3     1  UNL1        0.0217
     10 C         142.5478  142.5500  167.2227 C.3     1  UNL1        0.0034
     11 C         141.0743  142.7830  167.0669 C.3     1  UNL1        0.0217
     12 C         140.5012  143.0817  165.7133 C.3     1  UNL1        0.0967
     13 O         139.3549  143.6792  163.0061 O.3     1  UNL1       -0.4418
     14 C         138.8492  142.1454  161.3711 C.3     1  UNL1        0.0437
     15 C         138.4339  142.5204  162.7629 C.3     1  UNL1        0.1378
     16 C         137.3688  141.4919  163.0030 C.3     1  UNL1        0.0437
     17 C         137.6990  142.4930  164.0702 C.3     1  UNL1        0.0437
     18 C         142.5643  138.8289  169.5739 C.3     1  UNL1        0.2054
     19 O         143.3738  138.3979  168.3868 O.3     1  UNL1       -0.4754
     20 C         142.9106  138.7353  167.0006 C.ar    1  UNL1        0.1408
     21 C         143.8546  138.6060  165.8421 C.ar    1  UNL1        0.0367
     22 C         143.3914  138.9434  164.4559 C.ar    1  UNL1        0.0016
     23 C         141.9841  139.4102  164.2282 C.ar    1  UNL1        0.0146
     24 C         141.0401  139.5395  165.3868 C.ar    1  UNL1        0.1396
     25 F         139.6329  140.0063  165.1591 F       1  UNL1       -0.2044
     26 C         141.5034  139.2021  166.7729 C.ar    1  UNL1        0.0662
     27 C         141.5208  139.7476  162.8421 C.3     1  UNL1        0.1138
     28 C         141.5619  138.7062  161.7632 C.2     1  UNL1        0.2301
     29 O         141.0432  137.3250  162.0340 O.2     1  UNL1       -0.2745
     30 N         142.1216  139.0460  160.4137 N.am    1  UNL1       -0.2791
     31 C         142.3224  138.2973  159.1295 C.3     1  UNL1        0.0952
     32 C         142.9131  139.5265  158.5052 C.3     1  UNL1        0.0430
     33 C         142.7124  140.2753  159.7893 C.3     1  UNL1        0.0952
@<TRIPOS>BOND
     1    14    15    1
     2    15    13    1
     3    13     5    1
     4     5     6    2
     5     5     7   am
     6     7     8    1
     7     8     9    1
     8     9    10    1
     9     2    10    1
    10     2     3    1
    11     3     4    1
    12     4     1    1
    13     1    18    1
    14    18    19    1
    15    19    20    1
    16    20    21   ar
    17    21    22   ar
    18    22    23   ar
    19    23    27    1
    20    27    28    1
    21    28    29    2
    22    28    30   am
    23    30    31    1
    24    31    32    1
    25    32    33    1
    26    23    24   ar
    27    24    25    1
    28    24    26   ar
    29    10    11    1
    30    11    12    1
    31    15    16    1
    32    16    17    1
    33    17    15    1
    34    12     7    1
    35     4     2    1
    36    26    20   ar
    37    33    30    1
@<TRIPOS>MOLECULE
*****
 33 37 0 0 0
SMALL
GASTEIGER

@<TRIPOS>ATOM
      1 C         143.9541  138.4299  161.0924 C.3     1  UNL1        0.0473
      2 C         142.2046  138.5536  163.3991 C.3     1  UNL1        0.0002
      3 C         141.3945  137.8772  162.3333 C.3     1  UNL1        0.0001
      4 C         142.7995  138.3149  162.0429 C.3     1  UNL1        0.0037
      5 C         142.7020  140.6667  168.9927 C.2     1  UNL1        0.4046
      6 O         143.3892  139.8483  170.0452 O.2     1  UNL1       -0.2262
      7 N         142.5776  140.1384  167.5942 N.am    1  UNL1       -0.2460
      8 C         143.1406  138.7918  167.2485 C.3     1  UNL1        0.0967
      9 C         143.0162  138.2635  165.8501 C.3     1  UNL1        0.0217
     10 C         142.3290  139.0819  164.7975 C.3     1  UNL1        0.0034
     11 C         141.7660  140.4285  165.1433 C.3     1  UNL1        0.0217
     12 C         141.8904  140.9568  166.5417 C.3     1  UNL1        0.0967
     13 O         142.1390  142.0134  169.3385 O.3     1  UNL1       -0.4418
     14 C         140.4107  143.5230  169.2153 C.3     1  UNL1        0.0437
     15 C         140.6979  142.1450  169.7334 C.3     1  UNL1        0.1378
     16 C         139.3566  141.7980  170.3083 C.3     1  UNL1        0.0437
     17 C         140.4848  140.8126  170.3887 C.3     1  UNL1        0.0437
     18 C         144.4745  139.7822  160.7045 C.3     1  UNL1        0.2054
     19 O         144.9514  140.7337  161.7615 O.3     1  UNL1       -0.4754
     20 C         144.1034  141.9079  162.1515 C.ar    1  UNL1        0.1408
     21 C         142.7950  142.1510  161.4592 C.ar    1  UNL1        0.0367
     22 C         141.9470  143.3252  161.8492 C.ar    1  UNL1        0.0016
     23 C         142.4074  144.2563  162.9314 C.ar    1  UNL1        0.0146
     24 C         143.7157  144.0132  163.6236 C.ar    1  UNL1        0.1396
     25 F         144.1760  144.9444  164.7058 F       1  UNL1       -0.2044
     26 C         144.5637  142.8390  163.2336 C.ar    1  UNL1        0.0662
     27 C         141.5593  145.4306  163.3214 C.3     1  UNL1        0.1138
     28 C         140.1079  145.4656  162.9444 C.2     1  UNL1        0.2301
     29 O         139.6221  146.4498  161.9220 O.2     1  UNL1       -0.2745
     30 N         139.1422  144.5163  163.5897 N.am    1  UNL1       -0.2791
     31 C         137.6686  144.2611  163.4749 C.3     1  UNL1        0.0952
     32 C         137.7767  143.1739  164.5024 C.3     1  UNL1        0.0430
     33 C         139.2503  143.4289  164.6174 C.3     1  UNL1        0.0952
@<TRIPOS>BOND
     1    14    15    1
     2    15    13    1
     3    13     5    1
     4     5     6    2
     5     5     7   am
     6     7     8    1
     7     8     9    1
     8     9    10    1
     9     2    10    1
    10     2     3    1
    11     3     4    1
    12     4     1    1
    13     1    18    1
    14    18    19    1
    15    19    20    1
    16    20    21   ar
    17    21    22   ar
    18    22    23   ar
    19    23    27    1
    20    27    28    1
    21    28    29    2
    22    28    30   am
    23    30    31    1
    24    31    32    1
    25    32    33    1
    26    23    24   ar
    27    24    25    1
    28    24    26   ar
    29    10    11    1
    30    11    12    1
    31    15    16    1
    32    16    17    1
    33    17    15    1
    34    12     7    1
    35     4     2    1
    36    26    20   ar
    37    33    30    1
@<TRIPOS>MOLECULE
*****
 33 37 0 0 0
SMALL
GASTEIGER

@<TRIPOS>ATOM
      1 C         138.9050  139.8409  168.7626 C.3     1  UNL1        0.0473
      2 C         138.3064  139.6135  165.9365 C.3     1  UNL1        0.0002
      3 C         137.9409  138.2805  166.5192 C.3     1  UNL1        0.0001
      4 C         138.4863  139.3619  167.4042 C.3     1  UNL1        0.0037
      5 C         138.7349  143.2731  161.2010 C.2     1  UNL1        0.4046
      6 O         139.2798  144.6601  161.3720 O.2     1  UNL1       -0.2262
      7 N         138.6278  142.3582  162.3850 N.am    1  UNL1       -0.2460
      8 C         139.0655  142.8303  163.7397 C.3     1  UNL1        0.0967
      9 C         138.9584  141.9154  164.9235 C.3     1  UNL1        0.0217
     10 C         138.4135  140.5284  164.7526 C.3     1  UNL1        0.0034
     11 C         137.9758  140.0562  163.3978 C.3     1  UNL1        0.0217
     12 C         138.0829  140.9711  162.2140 C.3     1  UNL1        0.0967
     13 O         138.2972  142.8009  159.8463 O.3     1  UNL1       -0.4418
     14 C         140.5118  142.4002  159.3815 C.3     1  UNL1        0.0437
     15 C         139.1539  141.8427  159.0730 C.3     1  UNL1        0.1378
     16 C         139.5391  140.6909  158.1926 C.3     1  UNL1        0.0437
     17 C         138.0935  140.9525  158.4961 C.3     1  UNL1        0.0437
     18 C         140.3114  140.3092  168.9921 C.3     1  UNL1        0.2054
     19 O         140.8909  141.3928  168.1318 O.3     1  UNL1       -0.4754
     20 C         141.9204  141.0564  167.0939 C.ar    1  UNL1        0.1408
     21 C         142.1312  139.6296  166.6815 C.ar    1  UNL1        0.0367
     22 C         143.1607  139.2932  165.6437 C.ar    1  UNL1        0.0016
     23 C         143.9793  140.3836  165.0183 C.ar    1  UNL1        0.0146
     24 C         143.7684  141.8103  165.4307 C.ar    1  UNL1        0.1396
     25 F         144.5870  142.9005  164.8053 F       1  UNL1       -0.2044
     26 C         142.7389  142.1466  166.4685 C.ar    1  UNL1        0.0662
     27 C         145.0087  140.0472  163.9805 C.3     1  UNL1        0.1138
     28 C         144.7601  140.3852  162.5403 C.2     1  UNL1        0.2301
     29 O         145.2368  141.6940  161.9840 O.2     1  UNL1       -0.2745
     30 N         144.0347  139.4142  161.6565 N.am    1  UNL1       -0.2791
     31 C         143.6149  139.3998  160.2166 C.3     1  UNL1        0.0952
     32 C         143.0089  138.0410  160.4067 C.3     1  UNL1        0.0430
     33 C         143.4287  138.0552  161.8467 C.3     1  UNL1        0.0952
@<TRIPOS>BOND
     1    14    15    1
     2    15    13    1
     3    13     5    1
     4     5     6    2
     5     5     7   am
     6     7     8    1
     7     8     9    1
     8     9    10    1
     9     2    10    1
    10     2     3    1
    11     3     4    1
    12     4     1    1
    13     1    18    1
    14    18    19    1
    15    19    20    1
    16    20    21   ar
    17    21    22   ar
    18    22    23   ar
    19    23    27    1
    20    27    28    1
    21    28    29    2
    22    28    30   am
    23    30    31    1
    24    31    32    1
    25    32    33    1
    26    23    24   ar
    27    24    25    1
    28    24    26   ar
    29    10    11    1
    30    11    12    1
    31    15    16    1
    32    16    17    1
    33    17    15    1
    34    12     7    1
    35     4     2    1
    36    26    20   ar
    37    33    30    1
@<TRIPOS>MOLECULE
*****
 33 37 0 0 0
SMALL
GASTEIGER

@<TRIPOS>ATOM
      1 C         142.5804  137.6119  160.8972 C.3     1  UNL1        0.0473
      2 C         140.3925  138.5149  162.5688 C.3     1  UNL1        0.0002
      3 C         139.8066  138.3963  161.1930 C.3     1  UNL1        0.0001
      4 C         141.2509  138.0640  161.4243 C.3     1  UNL1        0.0037
      5 C         139.7626  139.8303  168.3889 C.2     1  UNL1        0.4046
      6 O         138.4054  139.7835  169.0258 O.2     1  UNL1       -0.2262
      7 N         139.9201  139.5015  166.9338 N.am    1  UNL1       -0.2460
      8 C         138.7203  139.1258  166.1157 C.3     1  UNL1        0.0967
      9 C         138.8777  138.7970  164.6607 C.3     1  UNL1        0.0217
     10 C         140.2350  138.8438  164.0238 C.3     1  UNL1        0.0034
     11 C         141.4348  139.2194  164.8419 C.3     1  UNL1        0.0217
     12 C         141.2773  139.5483  166.2969 C.3     1  UNL1        0.0967
     13 O         140.9624  140.2060  169.2070 O.3     1  UNL1       -0.4418
     14 C         140.4277  142.3986  168.7738 C.3     1  UNL1        0.0437
     15 C         141.6318  141.5311  168.9921 C.3     1  UNL1        0.1378
     16 C         142.7192  142.5549  168.8530 C.3     1  UNL1        0.0437
     17 C         143.0682  141.1237  169.1358 C.3     1  UNL1        0.0437
     18 C         143.8358  137.9352  161.6519 C.3     1  UNL1        0.2054
     19 O         144.4815  139.2798  161.4925 O.3     1  UNL1       -0.4754
     20 C         143.8864  140.4819  162.1639 C.ar    1  UNL1        0.1408
     21 C         142.8297  141.2850  161.4649 C.ar    1  UNL1        0.0367
     22 C         142.2346  142.4871  162.1363 C.ar    1  UNL1        0.0016
     23 C         142.6962  142.8861  163.5067 C.ar    1  UNL1        0.0146
     24 C         143.7527  142.0829  164.2056 C.ar    1  UNL1        0.1396
     25 F         144.2142  142.4818  165.5760 F       1  UNL1       -0.2044
     26 C         144.3479  140.8808  163.5342 C.ar    1  UNL1        0.0662
     27 C         142.1011  144.0882  164.1782 C.3     1  UNL1        0.1138
     28 C         140.7774  144.6248  163.7198 C.2     1  UNL1        0.2301
     29 O         140.7181  145.8935  162.9218 O.2     1  UNL1       -0.2745
     30 N         139.5130  143.8926  164.0594 N.am    1  UNL1       -0.2791
     31 C         138.0544  144.1118  163.7867 C.3     1  UNL1        0.0952
     32 C         137.7250  142.8571  164.5397 C.3     1  UNL1        0.0430
     33 C         139.1836  142.6378  164.8125 C.3     1  UNL1        0.0952
@<TRIPOS>BOND
     1    14    15    1
     2    15    13    1
     3    13     5    1
     4     5     6    2
     5     5     7   am
     6     7     8    1
     7     8     9    1
     8     9    10    1
     9     2    10    1
    10     2     3    1
    11     3     4    1
    12     4     1    1
    13     1    18    1
    14    18    19    1
    15    19    20    1
    16    20    21   ar
    17    21    22   ar
    18    22    23   ar
    19    23    27    1
    20    27    28    1
    21    28    29    2
    22    28    30   am
    23    30    31    1
    24    31    32    1
    25    32    33    1
    26    23    24   ar
    27    24    25    1
    28    24    26   ar
    29    10    11    1
    30    11    12    1
    31    15    16    1
    32    16    17    1
    33    17    15    1
    34    12     7    1
    35     4     2    1
    36    26    20   ar
    37    33    30    1
