@<TRIPOS>MOLECULE
*****
 41 44 0 0 0
SMALL
GASTEIGER

@<TRIPOS>ATOM
      1 N         143.4128  133.8333  157.9038 N.pl3   1  UNL1       -0.2532
      2 C         142.9675  135.2658  157.8974 C.2     1  UNL1        0.3612
      3 N         142.2924  135.2550  156.5580 N.am    1  UNL1       -0.0062
      4 C         141.5471  135.6188  155.3081 C.2     1  UNL1        0.3358
      5 O         141.6216  134.2787  154.6386 O.2     1  UNL1       -0.2516
      6 C         140.7824  136.3326  154.2330 C.3     1  UNL1        0.1697
      7 C         140.7968  135.0392  153.4736 C.3     1  UNL1        0.0326
      8 C         140.0737  135.2548  152.1772 C.3     1  UNL1        0.0237
      9 C         139.6124  136.6814  152.1355 C.3     1  UNL1        0.0913
     10 N         140.0503  137.3476  153.4061 N.pl3   1  UNL1       -0.3002
     11 C         139.0653  139.9423  153.0418 C.ar    1  UNL1        0.0484
     12 C         139.4698  140.6747  154.2867 C.ar    1  UNL1        0.0176
     13 C         139.1096  142.1208  154.4566 C.ar    1  UNL1        0.0382
     14 C         138.3449  142.8345  153.3816 C.ar    1  UNL1        0.1391
     15 C         137.9403  142.1022  152.1366 C.ar    1  UNL1        0.0382
     16 C         138.3005  140.6560  151.9668 C.ar    1  UNL1        0.0176
     17 O         138.3705  144.0923  154.1984 O.3     1  UNL1       -0.4707
     18 C         138.5932  145.1226  155.2657 C.3     1  UNL1        0.2315
     19 C         138.9977  145.8551  156.5107 C.2     1  UNL1        0.0175
     20 C         139.5566  146.2397  157.8484 C.2     1  UNL1       -0.0099
     21 C         140.2317  146.2505  159.1879 C.3     1  UNL1        0.0955
     22 N         140.9770  145.8867  160.4378 N.3     1  UNL1       -0.2861
     23 C         141.7418  145.1729  161.5128 C.3     1  UNL1        0.1555
     24 C         142.4738  144.1579  162.3398 C.2     1  UNL1        0.2423
     25 O         142.7901  145.0468  163.5058 O.2     1  UNL1       -0.2733
     26 N         143.1233  142.9109  162.8623 N.am    1  UNL1       -0.2815
     27 C         143.6459  141.5168  163.0450 C.ar    1  UNL1        0.0717
     28 C         144.0061  140.0706  162.8750 C.ar    1  UNL1        0.0717
     29 CL        144.7224  139.8926  164.1809 Cl      1  UNL1       -0.0809
     30 C         144.1793  138.6709  162.3642 C.ar    1  UNL1        0.0116
     31 C         144.1536  137.4131  161.5474 C.ar    1  UNL1        0.0165
     32 C         143.7935  138.8593  161.7173 C.ar    1  UNL1        0.0116
     33 C         143.6203  140.2590  162.2281 C.ar    1  UNL1        0.0717
     34 CL        142.8587  140.8024  161.0556 Cl      1  UNL1       -0.0809
     35 C         143.9310  136.3828  160.4801 C.3     1  UNL1        0.1905
     36 N         143.5264  135.6504  159.2352 N.pl3   1  UNL1       -0.2228
     37 H         143.2052  133.2499  157.1385 H       1  UNL1        0.2410
     38 H         143.9126  133.4766  158.6733 H       1  UNL1        0.2410
     39 H         140.2315  146.1918  161.0634 H       1  UNL1        0.1240
     40 H         143.4421  143.2806  163.7172 H       1  UNL1        0.1549
     41 H         143.9144  134.7762  159.4686 H       1  UNL1        0.2454
@<TRIPOS>BOND
     1     1     2    1
     2     2     3    2
     3     3     4    1
     4     4     5    2
     5     4     6    1
     6     6     7    1
     7     7     8    1
     8     8     9    1
     9     9    10    1
    10    10    11    1
    11    11    12   ar
    12    12    13   ar
    13    13    14   ar
    14    14    15   ar
    15    15    16   ar
    16    14    17    1
    17    17    18    1
    18    18    19    1
    19    19    20    2
    20    20    21    1
    21    21    22    1
    22    22    23    1
    23    23    24    1
    24    24    25    2
    25    24    26   am
    26    26    27    1
    27    27    28   ar
    28    28    29    1
    29    28    30   ar
    30    30    31   ar
    31    31    32   ar
    32    32    33   ar
    33    33    34    1
    34    31    35    1
    35    35    36    1
    36    36     2    1
    37    10     6    1
    38    16    11   ar
    39    33    27   ar
    40     1    37    1
    41     1    38    1
    42    22    39    1
    43    26    40    1
    44    36    41    1
@<TRIPOS>MOLECULE
*****
 41 44 0 0 0
SMALL
GASTEIGER

@<TRIPOS>ATOM
      1 N         137.4526  143.5202  151.9668 N.pl3   1  UNL1       -0.2532
      2 C         138.2210  142.7942  153.0311 C.2     1  UNL1        0.3612
      3 N         138.3773  143.9457  153.9796 N.am    1  UNL1       -0.0062
      4 C         138.7235  144.8292  155.1413 C.2     1  UNL1        0.3358
      5 O         138.0863  146.0863  154.6280 O.2     1  UNL1       -0.2516
      6 C         139.2360  145.3845  156.4370 C.3     1  UNL1        0.1697
      7 C         138.6348  146.6947  156.0225 C.3     1  UNL1        0.0326
      8 C         138.9071  147.6937  157.1078 C.3     1  UNL1        0.0237
      9 C         139.6767  147.0010  158.1930 C.3     1  UNL1        0.0913
     10 N         139.8800  145.5737  157.7785 N.pl3   1  UNL1       -0.3002
     11 C         141.3145  144.5605  159.9581 C.ar    1  UNL1        0.0484
     12 C         141.5564  143.1215  159.6109 C.ar    1  UNL1        0.0176
     13 C         142.3109  142.2377  160.5595 C.ar    1  UNL1        0.0382
     14 C         142.8234  142.7930  161.8552 C.ar    1  UNL1        0.1391
     15 C         142.5815  144.2320  162.2024 C.ar    1  UNL1        0.0382
     16 C         141.8271  145.1158  161.2539 C.ar    1  UNL1        0.0176
     17 O         143.3987  141.4519  162.2024 O.3     1  UNL1       -0.4707
     18 C         143.8216  140.0128  162.2024 C.3     1  UNL1        0.2315
     19 C         144.0636  138.5736  161.8552 C.2     1  UNL1        0.0175
     20 C         144.1079  137.2327  161.1845 C.2     1  UNL1       -0.0099
     21 C         143.9516  136.0813  160.2359 C.3     1  UNL1        0.0955
     22 N         143.6054  135.1977  159.0742 N.3     1  UNL1       -0.2861
     23 C         143.0929  134.6425  157.7785 C.3     1  UNL1        0.1555
     24 C         142.4489  134.4532  156.4370 C.2     1  UNL1        0.2423
     25 O         142.7842  133.0018  156.2619 O.2     1  UNL1       -0.2733
     26 N         141.7174  134.6429  155.1413 N.am    1  UNL1       -0.2815
     27 C         140.9482  135.1985  153.9796 C.ar    1  UNL1        0.0717
     28 C         140.1937  136.0823  153.0310 C.ar    1  UNL1        0.0717
     29 CL        139.9404  135.0560  151.9668 Cl      1  UNL1       -0.0809
     30 C         139.5054  137.2340  152.3603 C.ar    1  UNL1        0.0116
     31 C         138.9302  138.5751  152.0131 C.ar    1  UNL1        0.0165
     32 C         139.6847  137.6913  152.9617 C.ar    1  UNL1        0.0116
     33 C         140.3730  136.5396  153.6324 C.ar    1  UNL1        0.0717
     34 CL        140.8060  137.2652  154.8717 Cl      1  UNL1       -0.0809
     35 C         138.5072  140.0143  152.0131 C.3     1  UNL1        0.1905
     36 N         138.2653  141.4533  152.3603 N.pl3   1  UNL1       -0.2228
     37 H         137.2325  144.4729  152.0817 H       1  UNL1        0.2410
     38 H         137.1683  143.0440  151.1534 H       1  UNL1        0.2410
     39 H         143.1410  134.4942  159.6484 H       1  UNL1        0.1240
     40 H         141.8121  133.7227  154.8044 H       1  UNL1        0.1549
     41 H         137.7686  141.7000  151.5469 H       1  UNL1        0.2454
@<TRIPOS>BOND
     1     1     2    1
     2     2     3    2
     3     3     4    1
     4     4     5    2
     5     4     6    1
     6     6     7    1
     7     7     8    1
     8     8     9    1
     9     9    10    1
    10    10    11    1
    11    11    12   ar
    12    12    13   ar
    13    13    14   ar
    14    14    15   ar
    15    15    16   ar
    16    14    17    1
    17    17    18    1
    18    18    19    1
    19    19    20    2
    20    20    21    1
    21    21    22    1
    22    22    23    1
    23    23    24    1
    24    24    25    2
    25    24    26   am
    26    26    27    1
    27    27    28   ar
    28    28    29    1
    29    28    30   ar
    30    30    31   ar
    31    31    32   ar
    32    32    33   ar
    33    33    34    1
    34    31    35    1
    35    35    36    1
    36    36     2    1
    37    10     6    1
    38    16    11   ar
    39    33    27   ar
    40     1    37    1
    41     1    38    1
    42    22    39    1
    43    26    40    1
    44    36    41    1
@<TRIPOS>MOLECULE
*****
 41 44 0 0 0
SMALL
GASTEIGER

@<TRIPOS>ATOM
      1 N         138.4748  148.8240  159.4670 N.pl3   1  UNL1       -0.2532
      2 C         139.0147  147.4390  159.2660 C.2     1  UNL1        0.3612
      3 N         139.2639  147.5382  157.7902 N.am    1  UNL1       -0.0062
      4 C         139.6371  147.2691  156.3625 C.2     1  UNL1        0.3358
      5 O         139.2597  148.6097  155.8055 O.2     1  UNL1       -0.2516
      6 C         140.1088  146.6500  155.0802 C.3     1  UNL1        0.1697
      7 C         139.7660  147.9513  154.4177 C.3     1  UNL1        0.0326
      8 C         140.0922  147.8288  152.9587 C.3     1  UNL1        0.0237
      9 C         140.6366  146.4517  152.7196 C.3     1  UNL1        0.0913
     10 N         140.6469  145.7231  154.0308 N.pl3   1  UNL1       -0.3002
     11 C         141.6916  143.2378  153.2779 C.ar    1  UNL1        0.0484
     12 C         141.7316  142.4469  154.5518 C.ar    1  UNL1        0.0176
     13 C         142.2434  141.0370  154.5434 C.ar    1  UNL1        0.0382
     14 C         142.7151  140.4179  153.2612 C.ar    1  UNL1        0.1391
     15 C         142.6751  141.2087  151.9873 C.ar    1  UNL1        0.0382
     16 C         142.1633  142.6187  151.9956 C.ar    1  UNL1        0.0176
     17 O         143.0337  139.1472  153.9919 O.3     1  UNL1       -0.4707
     18 C         143.2193  138.0800  155.0295 C.3     1  UNL1        0.2315
     19 C         143.2594  137.2891  156.3035 C.2     1  UNL1        0.0175
     20 C         143.1511  136.8284  157.7268 C.2     1  UNL1       -0.0099
     21 C         142.9019  136.7292  159.2026 C.3     1  UNL1        0.0955
     22 N         142.5287  136.9983  160.6304 N.3     1  UNL1       -0.2861
     23 C         142.0570  137.6174  161.9126 C.3     1  UNL1        0.1555
     24 C         141.5189  138.5443  162.9621 C.2     1  UNL1        0.2423
     25 O         141.6327  137.6073  164.1278 O.2     1  UNL1       -0.2733
     26 N         140.9511  139.7158  163.7072 N.am    1  UNL1       -0.2815
     27 C         140.3923  141.0520  164.0973 C.ar    1  UNL1        0.0717
     28 C         139.8805  142.4620  164.1056 C.ar    1  UNL1        0.0717
     29 CL        139.5666  142.5476  165.5699 Cl      1  UNL1       -0.0809
     30 C         139.4507  143.8496  163.7317 C.ar    1  UNL1        0.0116
     31 C         139.1321  145.1203  163.0010 C.ar    1  UNL1        0.0165
     32 C         139.6439  143.7103  162.9927 C.ar    1  UNL1        0.0116
     33 C         140.0737  142.3227  163.3666 C.ar    1  UNL1        0.0717
     34 CL        140.4998  141.8747  161.9999 Cl      1  UNL1       -0.0809
     35 C         138.9464  146.1874  161.9633 C.3     1  UNL1        0.1905
     36 N         138.9064  146.9783  160.6894 N.pl3   1  UNL1       -0.2228
     37 H         138.4001  149.4390  158.7018 H       1  UNL1        0.2410
     38 H         138.1951  149.1180  160.3640 H       1  UNL1        0.2410
     39 H         143.4474  136.7507  160.9979 H       1  UNL1        0.1240
     40 H         140.9285  139.3015  164.6000 H       1  UNL1        0.1549
     41 H         138.5335  147.8084  161.0651 H       1  UNL1        0.2454
@<TRIPOS>BOND
     1     1     2    1
     2     2     3    2
     3     3     4    1
     4     4     5    2
     5     4     6    1
     6     6     7    1
     7     7     8    1
     8     8     9    1
     9     9    10    1
    10    10    11    1
    11    11    12   ar
    12    12    13   ar
    13    13    14   ar
    14    14    15   ar
    15    15    16   ar
    16    14    17    1
    17    17    18    1
    18    18    19    1
    19    19    20    2
    20    20    21    1
    21    21    22    1
    22    22    23    1
    23    23    24    1
    24    24    25    2
    25    24    26   am
    26    26    27    1
    27    27    28   ar
    28    28    29    1
    29    28    30   ar
    30    30    31   ar
    31    31    32   ar
    32    32    33   ar
    33    33    34    1
    34    31    35    1
    35    35    36    1
    36    36     2    1
    37    10     6    1
    38    16    11   ar
    39    33    27   ar
    40     1    37    1
    41     1    38    1
    42    22    39    1
    43    26    40    1
    44    36    41    1
@<TRIPOS>MOLECULE
*****
 41 44 0 0 0
SMALL
GASTEIGER

@<TRIPOS>ATOM
      1 N         139.2412  144.7072  151.9668 N.pl3   1  UNL1       -0.2532
      2 C         139.6529  144.0111  153.2302 C.2     1  UNL1        0.3612
      3 N         139.3845  145.1450  154.1748 N.am    1  UNL1       -0.0062
      4 C         139.2418  146.0199  155.3849 C.2     1  UNL1        0.3358
      5 O         138.7229  147.2403  154.6840 O.2     1  UNL1       -0.2516
      6 C         139.2346  146.5762  156.7779 C.3     1  UNL1        0.1697
      7 C         138.7114  147.8495  156.1822 C.3     1  UNL1        0.0326
      8 C         138.5168  148.8362  157.2951 C.3     1  UNL1        0.0237
      9 C         138.9197  148.1727  158.5785 C.3     1  UNL1        0.0913
     10 N         139.3634  146.7759  158.2590 N.pl3   1  UNL1       -0.3002
     11 C         140.0392  145.8122  160.7986 C.ar    1  UNL1        0.0484
     12 C         140.4969  144.4046  160.5555 C.ar    1  UNL1        0.0176
     13 C         140.9474  143.5533  161.7054 C.ar    1  UNL1        0.0382
     14 C         140.9402  144.1096  163.0984 C.ar    1  UNL1        0.1391
     15 C         140.4825  145.5172  163.3415 C.ar    1  UNL1        0.0382
     16 C         140.0320  146.3685  162.1917 C.ar    1  UNL1        0.0176
     17 O         141.4646  142.8054  163.6219 O.3     1  UNL1       -0.4707
     18 C         141.9729  141.4016  163.7671 C.3     1  UNL1        0.2315
     19 C         142.4306  139.9939  163.5240 C.2     1  UNL1        0.0175
     20 C         142.8065  138.6784  162.9091 C.2     1  UNL1       -0.0099
     21 C         143.0748  137.5446  161.9645 C.3     1  UNL1        0.0955
     22 N         143.2175  136.6696  160.7544 N.3     1  UNL1       -0.2861
     23 C         143.2247  136.1133  159.3614 C.3     1  UNL1        0.1555
     24 C         143.0959  135.9136  157.8803 C.2     1  UNL1        0.2423
     25 O         143.5831  134.4958  157.8309 O.2     1  UNL1       -0.2733
     26 N         142.8399  136.0840  156.4122 N.am    1  UNL1       -0.2815
     27 C         142.4743  136.6128  155.0570 C.ar    1  UNL1        0.0717
     28 C         142.0237  137.4642  153.9071 C.ar    1  UNL1        0.0717
     29 CL        142.2310  136.4511  152.8205 Cl      1  UNL1       -0.0809
     30 C         141.5191  138.5800  153.0409 C.ar    1  UNL1        0.0116
     31 C         140.9947  139.8842  152.5174 C.ar    1  UNL1        0.0165
     32 C         141.4453  139.0328  153.6673 C.ar    1  UNL1        0.0116
     33 C         141.9499  137.9170  154.5335 C.ar    1  UNL1        0.0717
     34 CL        141.8743  138.6388  155.8463 Cl      1  UNL1       -0.0809
     35 C         140.4864  141.2880  152.3722 C.3     1  UNL1        0.1905
     36 N         140.0287  142.6956  152.6154 N.pl3   1  UNL1       -0.2228
     37 H         138.9215  145.6378  151.9992 H       1  UNL1        0.2410
     38 H         139.2908  144.2335  151.1052 H       1  UNL1        0.2410
     39 H         142.6410  135.9187  161.1341 H       1  UNL1        0.1240
     40 H         143.1158  135.1826  156.1283 H       1  UNL1        0.1549
     41 H         139.8229  142.9271  151.6808 H       1  UNL1        0.2454
@<TRIPOS>BOND
     1     1     2    1
     2     2     3    2
     3     3     4    1
     4     4     5    2
     5     4     6    1
     6     6     7    1
     7     7     8    1
     8     8     9    1
     9     9    10    1
    10    10    11    1
    11    11    12   ar
    12    12    13   ar
    13    13    14   ar
    14    14    15   ar
    15    15    16   ar
    16    14    17    1
    17    17    18    1
    18    18    19    1
    19    19    20    2
    20    20    21    1
    21    21    22    1
    22    22    23    1
    23    23    24    1
    24    24    25    2
    25    24    26   am
    26    26    27    1
    27    27    28   ar
    28    28    29    1
    29    28    30   ar
    30    30    31   ar
    31    31    32   ar
    32    32    33   ar
    33    33    34    1
    34    31    35    1
    35    35    36    1
    36    36     2    1
    37    10     6    1
    38    16    11   ar
    39    33    27   ar
    40     1    37    1
    41     1    38    1
    42    22    39    1
    43    26    40    1
    44    36    41    1
@<TRIPOS>MOLECULE
*****
 41 44 0 0 0
SMALL
GASTEIGER

@<TRIPOS>ATOM
      1 N         144.8286  139.0116  163.3469 N.pl3   1  UNL1       -0.2532
      2 C         144.0910  139.2086  162.0556 C.2     1  UNL1        0.3612
      3 N         143.7342  140.6522  162.2523 N.am    1  UNL1       -0.0062
      4 C         143.2092  142.0489  162.0985 C.2     1  UNL1        0.3358
      5 O         143.7166  142.5933  163.4008 O.2     1  UNL1       -0.2516
      6 C         142.5518  143.3035  161.6047 C.3     1  UNL1        0.1697
      7 C         143.0108  143.9511  162.8774 C.3     1  UNL1        0.0326
      8 C         142.5494  145.3784  162.8638 C.3     1  UNL1        0.0237
      9 C         141.8052  145.6127  161.5828 C.3     1  UNL1        0.0913
     10 N         141.8066  144.3304  160.8045 N.pl3   1  UNL1       -0.3002
     11 C         140.3752  145.0678  158.5149 C.ar    1  UNL1        0.0484
     12 C         140.3357  143.8219  157.6805 C.ar    1  UNL1        0.0176
     13 C         139.6387  143.8306  156.3523 C.ar    1  UNL1        0.0382
     14 C         138.9812  145.0852  155.8585 C.ar    1  UNL1        0.1391
     15 C         139.0207  146.3310  156.6929 C.ar    1  UNL1        0.0382
     16 C         139.7177  146.3223  158.0211 C.ar    1  UNL1        0.0176
     17 O         138.5560  144.3709  154.6099 O.3     1  UNL1       -0.4707
     18 C         138.3154  143.3562  153.5317 C.3     1  UNL1        0.2315
     19 C         138.2759  142.1103  152.6972 C.2     1  UNL1        0.0175
     20 C         138.4402  140.7181  152.1636 C.2     1  UNL1       -0.0099
     21 C         138.7969  139.2745  151.9669 C.3     1  UNL1        0.0955
     22 N         139.3219  137.8778  152.1207 N.3     1  UNL1       -0.2861
     23 C         139.9794  136.6233  152.6145 C.3     1  UNL1        0.1555
     24 C         140.7245  135.5964  153.4147 C.2     1  UNL1        0.2423
     25 O         140.5833  134.4564  152.4501 O.2     1  UNL1       -0.2733
     26 N         141.5065  134.8671  154.4666 N.am    1  UNL1       -0.2815
     27 C         142.2721  134.4850  155.6986 C.ar    1  UNL1        0.0717
     28 C         142.9691  134.4763  157.0269 C.ar    1  UNL1        0.0717
     29 CL        143.4137  133.0439  157.0052 Cl      1  UNL1       -0.0809
     30 C         143.5499  134.8416  158.3608 C.ar    1  UNL1        0.0116
     31 C         143.9752  135.5559  159.6093 C.ar    1  UNL1        0.0165
     32 C         143.2782  135.5646  158.2811 C.ar    1  UNL1        0.0116
     33 C         142.6973  135.1993  156.9472 C.ar    1  UNL1        0.0717
     34 CL        142.1009  136.5364  156.6206 Cl      1  UNL1       -0.0809
     35 C         144.2157  136.5706  160.6876 C.3     1  UNL1        0.1905
     36 N         144.2552  137.8164  161.5220 N.pl3   1  UNL1       -0.2228
     37 H         144.9213  139.7598  163.9800 H       1  UNL1        0.2410
     38 H         145.2200  138.1340  163.5612 H       1  UNL1        0.2410
     39 H         139.8331  137.8902  151.2381 H       1  UNL1        0.1240
     40 H         141.5478  133.9939  154.0138 H       1  UNL1        0.1549
     41 H         144.7675  137.4486  162.2780 H       1  UNL1        0.2454
@<TRIPOS>BOND
     1     1     2    1
     2     2     3    2
     3     3     4    1
     4     4     5    2
     5     4     6    1
     6     6     7    1
     7     7     8    1
     8     8     9    1
     9     9    10    1
    10    10    11    1
    11    11    12   ar
    12    12    13   ar
    13    13    14   ar
    14    14    15   ar
    15    15    16   ar
    16    14    17    1
    17    17    18    1
    18    18    19    1
    19    19    20    2
    20    20    21    1
    21    21    22    1
    22    22    23    1
    23    23    24    1
    24    24    25    2
    25    24    26   am
    26    26    27    1
    27    27    28   ar
    28    28    29    1
    29    28    30   ar
    30    30    31   ar
    31    31    32   ar
    32    32    33   ar
    33    33    34    1
    34    31    35    1
    35    35    36    1
    36    36     2    1
    37    10     6    1
    38    16    11   ar
    39    33    27   ar
    40     1    37    1
    41     1    38    1
    42    22    39    1
    43    26    40    1
    44    36    41    1
