@<TRIPOS>MOLECULE
*****
 32 36 0 0 0
SMALL
GASTEIGER

@<TRIPOS>ATOM
      1 C         141.0135  142.6478  163.1065 C.ar    1  UNL1       -0.0035
      2 C         141.5755  143.1985  164.3836 C.ar    1  UNL1        0.0757
      3 N         141.2036  142.2625  165.4951 N.ar    1  UNL1       -0.3052
      4 C         140.4118  141.1334  164.9051 C.ar    1  UNL1        0.0638
      5 C         139.7826  139.9192  165.5213 C.ar    1  UNL1        0.0184
      6 C         139.0359  138.9431  164.6612 C.ar    1  UNL1        0.0129
      7 C         138.9185  139.1813  163.1849 C.ar    1  UNL1        0.0578
      8 CL        138.1717  138.2051  162.3249 Cl      1  UNL1       -0.0822
      9 C         139.5476  140.3955  162.5687 C.ar    1  UNL1        0.0126
     10 C         140.2943  141.3715  163.4288 C.ar    1  UNL1        0.0144
     11 C         141.5608  142.4268  166.9427 C.ar    1  UNL1        0.0642
     12 C         142.9593  142.1456  167.4067 C.ar    1  UNL1        0.0198
     13 C         143.3165  142.3098  168.8543 C.ar    1  UNL1        0.0311
     14 C         142.2753  142.7553  169.8378 C.ar    1  UNL1        0.1402
     15 F         142.6325  142.9195  171.2854 F       1  UNL1       -0.2042
     16 C         140.8768  143.0364  169.3738 C.ar    1  UNL1        0.0311
     17 C         140.5196  142.8722  167.9263 C.ar    1  UNL1        0.0198
     18 N         141.4147  144.4995  159.0247 N.3     1  UNL1       -0.2712
     19 C         142.2014  143.2703  159.3712 C.3     1  UNL1        0.0725
     20 C         142.0677  142.6530  160.7318 C.3     1  UNL1        0.0218
     21 C         141.1472  143.2651  161.7459 C.3     1  UNL1        0.0266
     22 C         140.3606  144.4943  161.3993 C.3     1  UNL1        0.0218
     23 C         140.4943  145.1115  160.0388 C.3     1  UNL1        0.0725
     24 C         141.5484  145.1168  157.6642 C.3     1  UNL1        0.0939
     25 C         140.6049  146.2018  157.2368 C.3     1  UNL1        0.1123
     26 O         138.8796  148.3771  155.5220 O.2     1  UNL1       -0.2526
     27 C         138.6876  146.8895  155.5060 C.2     1  UNL1        0.3041
     28 N         137.6689  146.1407  154.6989 N.am    1  UNL1       -0.2870
     29 C         137.8323  144.6780  154.9883 C.3     1  UNL1        0.1124
     30 C         138.9520  144.5229  155.9742 C.3     1  UNL1        0.1162
     31 N         139.4806  145.8896  156.2941 N.am    1  UNL1       -0.2610
     32 H         137.0088  146.5392  154.0867 H       1  UNL1        0.1510
@<TRIPOS>BOND
     1    26    27    2
     2    27    28   am
     3    28    29    1
     4    29    30    1
     5    30    31    1
     6    31    25    1
     7    25    24    1
     8    24    18    1
     9    18    19    1
    10    19    20    1
    11    20    21    1
    12    21     1    1
    13     1     2   ar
    14     2     3   ar
    15     3    11    1
    16    11    12   ar
    17    12    13   ar
    18    13    14   ar
    19    14    15    1
    20    14    16   ar
    21    16    17   ar
    22     3     4   ar
    23     4     5   ar
    24     5     6   ar
    25     6     7   ar
    26     7     8    1
    27     7     9   ar
    28     9    10   ar
    29    21    22    1
    30    22    23    1
    31    31    27   am
    32    23    18    1
    33    10     1   ar
    34    17    11   ar
    35    10     4   ar
    36    28    32    1
@<TRIPOS>MOLECULE
*****
 32 36 0 0 0
SMALL
GASTEIGER

@<TRIPOS>ATOM
      1 C         141.4394  142.4677  162.6171 C.ar    1  UNL1       -0.0035
      2 C         140.4089  141.4010  162.8415 C.ar    1  UNL1        0.0757
      3 N         140.5872  140.8697  164.2328 N.ar    1  UNL1       -0.3052
      4 C         141.7278  141.6079  164.8684 C.ar    1  UNL1        0.0638
      5 C         142.3549  141.5085  166.2274 C.ar    1  UNL1        0.0184
      6 C         143.5087  142.3966  166.5877 C.ar    1  UNL1        0.0129
      7 C         144.0354  143.3842  165.5892 C.ar    1  UNL1        0.0578
      8 CL        145.1893  144.2723  165.9496 Cl      1  UNL1       -0.0822
      9 C         143.4084  143.4837  164.2302 C.ar    1  UNL1        0.0126
     10 C         142.2546  142.5955  163.8698 C.ar    1  UNL1        0.0144
     11 C         139.7685  139.7897  164.8758 C.ar    1  UNL1        0.0642
     12 C         138.9120  140.1059  166.0661 C.ar    1  UNL1        0.0198
     13 C         138.0933  139.0259  166.7091 C.ar    1  UNL1        0.0311
     14 C         138.1311  137.6298  166.1619 C.ar    1  UNL1        0.1402
     15 F         137.3124  136.5499  166.8048 F       1  UNL1       -0.2042
     16 C         138.9875  137.3137  164.9717 C.ar    1  UNL1        0.0311
     17 C         139.8062  138.3937  164.3287 C.ar    1  UNL1        0.0198
     18 N         141.9893  144.8634  158.8477 N.3     1  UNL1       -0.2712
     19 C         142.7472  143.5833  159.0400 C.3     1  UNL1        0.0725
     20 C         142.5639  142.7847  160.2965 C.3     1  UNL1        0.0218
     21 C         141.6227  143.2662  161.3607 C.3     1  UNL1        0.0266
     22 C         140.8648  144.5463  161.1683 C.3     1  UNL1        0.0218
     23 C         141.0481  145.3448  159.9118 C.3     1  UNL1        0.0725
     24 C         142.1725  145.6619  157.5912 C.3     1  UNL1        0.0939
     25 C         141.4388  145.2735  156.3419 C.3     1  UNL1        0.1123
     26 O         141.5951  146.1521  153.2030 O.2     1  UNL1       -0.2526
     27 C         140.6164  146.6688  154.2155 C.2     1  UNL1        0.3041
     28 N         139.5378  147.6801  153.9630 N.am    1  UNL1       -0.2870
     29 C         138.7994  147.9013  155.2497 C.3     1  UNL1        0.1124
     30 C         139.4216  147.0267  156.2975 C.3     1  UNL1        0.1162
     31 N         140.5446  146.2650  155.6583 N.am    1  UNL1       -0.2610
     32 H         139.3479  148.1213  153.1036 H       1  UNL1        0.1510
@<TRIPOS>BOND
     1    26    27    2
     2    27    28   am
     3    28    29    1
     4    29    30    1
     5    30    31    1
     6    31    25    1
     7    25    24    1
     8    24    18    1
     9    18    19    1
    10    19    20    1
    11    20    21    1
    12    21     1    1
    13     1     2   ar
    14     2     3   ar
    15     3    11    1
    16    11    12   ar
    17    12    13   ar
    18    13    14   ar
    19    14    15    1
    20    14    16   ar
    21    16    17   ar
    22     3     4   ar
    23     4     5   ar
    24     5     6   ar
    25     6     7   ar
    26     7     8    1
    27     7     9   ar
    28     9    10   ar
    29    21    22    1
    30    22    23    1
    31    31    27   am
    32    23    18    1
    33    10     1   ar
    34    17    11   ar
    35    10     4   ar
    36    28    32    1
@<TRIPOS>MOLECULE
*****
 32 36 0 0 0
SMALL
GASTEIGER

@<TRIPOS>ATOM
      1 C         144.9085  142.1834  158.4228 C.ar    1  UNL1       -0.0035
      2 C         146.0632  142.8300  157.7167 C.ar    1  UNL1        0.0757
      3 N         146.3463  142.0411  156.4727 N.ar    1  UNL1       -0.3052
      4 C         145.3665  140.9071  156.4099 C.ar    1  UNL1        0.0638
      5 C         145.1687  139.8057  155.4110 C.ar    1  UNL1        0.0184
      6 C         144.0822  138.7923  155.6174 C.ar    1  UNL1        0.0129
      7 C         143.1936  138.8803  156.8226 C.ar    1  UNL1        0.0578
      8 CL        142.1071  137.8668  157.0289 Cl      1  UNL1       -0.0822
      9 C         143.3914  139.9816  157.8215 C.ar    1  UNL1        0.0126
     10 C         144.4779  140.9950  157.6152 C.ar    1  UNL1        0.0144
     11 C         147.4206  142.3347  155.4679 C.ar    1  UNL1        0.0642
     12 C         148.7586  141.6665  155.5834 C.ar    1  UNL1        0.0198
     13 C         149.8329  141.9601  154.5786 C.ar    1  UNL1        0.0311
     14 C         149.5692  142.9219  153.4582 C.ar    1  UNL1        0.1402
     15 F         150.6434  143.2156  152.4533 F       1  UNL1       -0.2042
     16 C         148.2312  143.5901  153.3426 C.ar    1  UNL1        0.0311
     17 C         147.1569  143.2965  154.3475 C.ar    1  UNL1        0.0198
     18 N         143.0603  143.5663  162.2858 N.3     1  UNL1       -0.2712
     19 C         142.2984  143.6980  161.0004 C.3     1  UNL1        0.0725
     20 C         142.9144  143.2370  159.7128 C.3     1  UNL1        0.0218
     21 C         144.2924  142.6444  159.7105 C.3     1  UNL1        0.0266
     22 C         145.0543  142.5127  160.9958 C.3     1  UNL1        0.0218
     23 C         144.4383  142.9736  162.2834 C.3     1  UNL1        0.0725
     24 C         142.4443  144.0272  163.5734 C.3     1  UNL1        0.0939
     25 C         141.4158  145.1190  163.5642 C.3     1  UNL1        0.1123
     26 O         139.4304  146.1637  161.1944 O.2     1  UNL1       -0.2526
     27 C         139.0496  145.2590  162.3286 C.2     1  UNL1        0.3041
     28 N         137.6894  144.6757  162.5728 N.am    1  UNL1       -0.2870
     29 C         137.7614  143.8350  163.8129 C.3     1  UNL1        0.1124
     30 C         139.1660  143.8988  164.3352 C.3     1  UNL1        0.1162
     31 N         139.9622  144.7788  163.4180 N.am    1  UNL1       -0.2610
     32 H         136.8899  144.8194  162.0166 H       1  UNL1        0.1510
@<TRIPOS>BOND
     1    26    27    2
     2    27    28   am
     3    28    29    1
     4    29    30    1
     5    30    31    1
     6    31    25    1
     7    25    24    1
     8    24    18    1
     9    18    19    1
    10    19    20    1
    11    20    21    1
    12    21     1    1
    13     1     2   ar
    14     2     3   ar
    15     3    11    1
    16    11    12   ar
    17    12    13   ar
    18    13    14   ar
    19    14    15    1
    20    14    16   ar
    21    16    17   ar
    22     3     4   ar
    23     4     5   ar
    24     5     6   ar
    25     6     7   ar
    26     7     8    1
    27     7     9   ar
    28     9    10   ar
    29    21    22    1
    30    22    23    1
    31    31    27   am
    32    23    18    1
    33    10     1   ar
    34    17    11   ar
    35    10     4   ar
    36    28    32    1
@<TRIPOS>MOLECULE
*****
 32 36 0 0 0
SMALL
GASTEIGER

@<TRIPOS>ATOM
      1 C         141.1604  140.2649  162.5609 C.ar    1  UNL1       -0.0035
      2 C         141.1716  139.5748  163.8927 C.ar    1  UNL1        0.0757
      3 N         140.9887  140.6167  164.9561 N.ar    1  UNL1       -0.3052
      4 C         140.8645  141.9507  164.2816 C.ar    1  UNL1        0.0638
      5 C         140.6685  143.3353  164.8242 C.ar    1  UNL1        0.0184
      6 C         140.5786  144.5025  163.8863 C.ar    1  UNL1        0.0129
      7 C         140.6847  144.2851  162.4060 C.ar    1  UNL1        0.0578
      8 CL        140.5948  145.4524  161.4681 Cl      1  UNL1       -0.0822
      9 C         140.8807  142.9005  161.8634 C.ar    1  UNL1        0.0126
     10 C         140.9706  141.7333  162.8013 C.ar    1  UNL1        0.0144
     11 C         140.9388  140.3682  166.4346 C.ar    1  UNL1        0.0642
     12 C         142.1903  140.0025  167.1763 C.ar    1  UNL1        0.0198
     13 C         142.1403  139.7540  168.6548 C.ar    1  UNL1        0.0311
     14 C         140.8390  139.8713  169.3915 C.ar    1  UNL1        0.1402
     15 F         140.7890  139.6228  170.8699 F       1  UNL1       -0.2042
     16 C         139.5876  140.2370  168.6497 C.ar    1  UNL1        0.0311
     17 C         139.6375  140.4855  167.1713 C.ar    1  UNL1        0.0198
     18 N         141.6162  138.2787  158.5487 N.3     1  UNL1       -0.2712
     19 C         140.2490  138.5995  159.0758 C.3     1  UNL1        0.0725
     20 C         140.0970  139.2615  160.4132 C.3     1  UNL1        0.0218
     21 C         141.3124  139.6029  161.2235 C.3     1  UNL1        0.0266
     22 C         142.6795  139.2821  160.6964 C.3     1  UNL1        0.0218
     23 C         142.8314  138.6200  159.3590 C.3     1  UNL1        0.0725
     24 C         141.7681  137.6167  157.2113 C.3     1  UNL1        0.0939
     25 C         142.8347  136.5827  157.0031 C.3     1  UNL1        0.1123
     26 O         144.0760  133.7673  158.0903 O.2     1  UNL1       -0.2526
     27 C         143.0363  133.9174  157.0195 C.2     1  UNL1        0.3041
     28 N         142.3846  132.7997  156.2605 N.am    1  UNL1       -0.2870
     29 C         141.4113  133.4030  155.2917 C.3     1  UNL1        0.1124
     30 C         141.4614  134.8936  155.4520 C.3     1  UNL1        0.1162
     31 N         142.4657  135.2115  156.5198 N.am    1  UNL1       -0.2610
     32 H         142.5642  131.8388  156.3776 H       1  UNL1        0.1510
@<TRIPOS>BOND
     1    26    27    2
     2    27    28   am
     3    28    29    1
     4    29    30    1
     5    30    31    1
     6    31    25    1
     7    25    24    1
     8    24    18    1
     9    18    19    1
    10    19    20    1
    11    20    21    1
    12    21     1    1
    13     1     2   ar
    14     2     3   ar
    15     3    11    1
    16    11    12   ar
    17    12    13   ar
    18    13    14   ar
    19    14    15    1
    20    14    16   ar
    21    16    17   ar
    22     3     4   ar
    23     4     5   ar
    24     5     6   ar
    25     6     7   ar
    26     7     8    1
    27     7     9   ar
    28     9    10   ar
    29    21    22    1
    30    22    23    1
    31    31    27   am
    32    23    18    1
    33    10     1   ar
    34    17    11   ar
    35    10     4   ar
    36    28    32    1
@<TRIPOS>MOLECULE
*****
 32 36 0 0 0
SMALL
GASTEIGER

@<TRIPOS>ATOM
      1 C         141.4337  141.2156  162.4547 C.ar    1  UNL1       -0.0035
      2 C         141.5585  140.3699  163.6872 C.ar    1  UNL1        0.0757
      3 N         141.0757  141.1783  164.8549 N.ar    1  UNL1       -0.3052
      4 C         140.6524  142.5236  164.3440 C.ar    1  UNL1        0.0638
      5 C         140.0942  143.7305  165.0379 C.ar    1  UNL1        0.0184
      6 C         139.7571  144.9606  164.2484 C.ar    1  UNL1        0.0129
      7 C         139.9784  144.9836  162.7650 C.ar    1  UNL1        0.0578
      8 CL        139.6414  146.2138  161.9754 Cl      1  UNL1       -0.0822
      9 C         140.5367  143.7767  162.0711 C.ar    1  UNL1        0.0126
     10 C         140.8737  142.5467  162.8606 C.ar    1  UNL1        0.0144
     11 C         141.0250  140.7215  166.2827 C.ar    1  UNL1        0.0642
     12 C         139.7026  140.5620  166.9727 C.ar    1  UNL1        0.0198
     13 C         139.6518  140.1053  168.4005 C.ar    1  UNL1        0.0311
     14 C         140.9235  139.8081  169.1385 C.ar    1  UNL1        0.1402
     15 F         140.8727  139.3513  170.5664 F       1  UNL1       -0.2042
     16 C         142.2458  139.9676  168.4487 C.ar    1  UNL1        0.0311
     17 C         142.2965  140.4244  167.0208 C.ar    1  UNL1        0.0198
     18 N         142.5443  139.9772  158.2734 N.3     1  UNL1       -0.2712
     19 C         143.6172  140.3211  159.2637 C.3     1  UNL1        0.0725
     20 C         143.2470  140.7339  160.6574 C.3     1  UNL1        0.0218
     21 C         141.8039  140.8028  161.0609 C.3     1  UNL1        0.0266
     22 C         140.7311  140.4588  160.0707 C.3     1  UNL1        0.0218
     23 C         141.1013  140.0460  158.6769 C.3     1  UNL1        0.0725
     24 C         142.9145  139.5643  156.8796 C.3     1  UNL1        0.0939
     25 C         142.1084  138.5183  156.1682 C.3     1  UNL1        0.1123
     26 O         145.1644  137.6669  155.4031 O.2     1  UNL1       -0.2526
     27 C         144.0359  136.7256  155.7036 C.2     1  UNL1        0.3041
     28 N         144.1139  135.2276  155.7052 N.am    1  UNL1       -0.2870
     29 C         142.7575  134.6932  156.0578 C.3     1  UNL1        0.1124
     30 C         141.8411  135.8608  156.2742 C.3     1  UNL1        0.1162
     31 N         142.6312  137.1169  156.0553 N.am    1  UNL1       -0.2610
     32 H         144.9147  134.6896  155.5091 H       1  UNL1        0.1510
@<TRIPOS>BOND
     1    26    27    2
     2    27    28   am
     3    28    29    1
     4    29    30    1
     5    30    31    1
     6    31    25    1
     7    25    24    1
     8    24    18    1
     9    18    19    1
    10    19    20    1
    11    20    21    1
    12    21     1    1
    13     1     2   ar
    14     2     3   ar
    15     3    11    1
    16    11    12   ar
    17    12    13   ar
    18    13    14   ar
    19    14    15    1
    20    14    16   ar
    21    16    17   ar
    22     3     4   ar
    23     4     5   ar
    24     5     6   ar
    25     6     7   ar
    26     7     8    1
    27     7     9   ar
    28     9    10   ar
    29    21    22    1
    30    22    23    1
    31    31    27   am
    32    23    18    1
    33    10     1   ar
    34    17    11   ar
    35    10     4   ar
    36    28    32    1
@<TRIPOS>MOLECULE
*****
 32 36 0 0 0
SMALL
GASTEIGER

@<TRIPOS>ATOM
      1 C         141.5374  140.1098  163.1439 C.ar    1  UNL1       -0.0035
      2 C         140.9649  139.5404  164.4081 C.ar    1  UNL1        0.0757
      3 N         141.4000  140.4128  165.5480 N.ar    1  UNL1       -0.3052
      4 C         142.2414  141.5214  164.9885 C.ar    1  UNL1        0.0638
      5 C         142.9413  142.6772  165.6399 C.ar    1  UNL1        0.0184
      6 C         143.7260  143.6456  164.8055 C.ar    1  UNL1        0.0129
      7 C         143.8108  143.4584  163.3197 C.ar    1  UNL1        0.0578
      8 CL        144.5956  144.4269  162.4853 Cl      1  UNL1       -0.0822
      9 C         143.1110  142.3026  162.6682 C.ar    1  UNL1        0.0126
     10 C         142.3263  141.3341  163.5026 C.ar    1  UNL1        0.0144
     11 C         141.0545  140.2120  166.9938 C.ar    1  UNL1        0.0642
     12 C         139.6372  140.3780  167.4563 C.ar    1  UNL1        0.0198
     13 C         139.2916  140.1771  168.9020 C.ar    1  UNL1        0.0311
     14 C         140.3633  139.8102  169.8854 C.ar    1  UNL1        0.1402
     15 F         140.0177  139.6094  171.3311 F       1  UNL1       -0.2042
     16 C         141.7805  139.6443  169.4229 C.ar    1  UNL1        0.0311
     17 C         142.1261  139.8451  167.9771 C.ar    1  UNL1        0.0198
     18 N         140.9849  138.4386  159.0024 N.3     1  UNL1       -0.2712
     19 C         139.8065  138.9805  159.7559 C.3     1  UNL1        0.0725
     20 C         139.9906  139.5376  161.1364 C.3     1  UNL1        0.0218
     21 C         141.3532  139.5527  161.7634 C.3     1  UNL1        0.0266
     22 C         142.5315  139.0108  161.0100 C.3     1  UNL1        0.0218
     23 C         142.3474  138.4537  159.6295 C.3     1  UNL1        0.0725
     24 C         140.8007  137.8815  157.6219 C.3     1  UNL1        0.0939
     25 C         141.8907  138.0291  156.6021 C.3     1  UNL1        0.1123
     26 O         145.0047  137.9115  155.6335 O.2     1  UNL1       -0.2526
     27 C         144.0417  136.7616  155.6473 C.2     1  UNL1        0.3041
     28 N         144.3409  135.3557  155.2184 N.am    1  UNL1       -0.2870
     29 C         143.0945  134.5409  155.3985 C.3     1  UNL1        0.1124
     30 C         142.0249  135.4432  155.9387 C.3     1  UNL1        0.1162
     31 N         142.6103  136.8156  156.0925 N.am    1  UNL1       -0.2610
     32 H         145.2039  135.0257  154.8783 H       1  UNL1        0.1510
@<TRIPOS>BOND
     1    26    27    2
     2    27    28   am
     3    28    29    1
     4    29    30    1
     5    30    31    1
     6    31    25    1
     7    25    24    1
     8    24    18    1
     9    18    19    1
    10    19    20    1
    11    20    21    1
    12    21     1    1
    13     1     2   ar
    14     2     3   ar
    15     3    11    1
    16    11    12   ar
    17    12    13   ar
    18    13    14   ar
    19    14    15    1
    20    14    16   ar
    21    16    17   ar
    22     3     4   ar
    23     4     5   ar
    24     5     6   ar
    25     6     7   ar
    26     7     8    1
    27     7     9   ar
    28     9    10   ar
    29    21    22    1
    30    22    23    1
    31    31    27   am
    32    23    18    1
    33    10     1   ar
    34    17    11   ar
    35    10     4   ar
    36    28    32    1
@<TRIPOS>MOLECULE
*****
 32 36 0 0 0
SMALL
GASTEIGER

@<TRIPOS>ATOM
      1 C         142.3922  141.6707  163.3118 C.ar    1  UNL1       -0.0035
      2 C         143.0063  141.0665  164.5398 C.ar    1  UNL1        0.0757
      3 N         142.2028  141.5102  165.7261 N.ar    1  UNL1       -0.3052
      4 C         141.0921  142.3887  165.2314 C.ar    1  UNL1        0.0638
      5 C         139.9893  143.1111  165.9468 C.ar    1  UNL1        0.0184
      6 C         139.0035  143.9326  165.1701 C.ar    1  UNL1        0.0129
      7 C         139.1206  144.0318  163.6779 C.ar    1  UNL1        0.0578
      8 CL        138.1348  144.8534  162.9012 Cl      1  UNL1       -0.0822
      9 C         140.2235  143.3094  162.9625 C.ar    1  UNL1        0.0126
     10 C         141.2092  142.4878  163.7392 C.ar    1  UNL1        0.0144
     11 C         142.4640  141.1405  167.1562 C.ar    1  UNL1        0.0642
     12 C         142.1847  139.7460  167.6334 C.ar    1  UNL1        0.0198
     13 C         142.4459  139.3763  169.0634 C.ar    1  UNL1        0.0311
     14 C         142.9865  140.4009  170.0163 C.ar    1  UNL1        0.1402
     15 F         143.2477  140.0311  171.4463 F       1  UNL1       -0.2042
     16 C         143.2658  141.7952  169.5391 C.ar    1  UNL1        0.0311
     17 C         143.0045  142.1650  168.1090 C.ar    1  UNL1        0.0198
     18 N         143.8443  141.1273  159.0873 N.3     1  UNL1       -0.2712
     19 C         144.4125  142.2222  159.9407 C.3     1  UNL1        0.0725
     20 C         143.9285  142.4034  161.3488 C.3     1  UNL1        0.0218
     21 C         142.8762  141.4895  161.9037 C.3     1  UNL1        0.0266
     22 C         142.3080  140.3947  161.0503 C.3     1  UNL1        0.0218
     23 C         142.7920  140.2135  159.6421 C.3     1  UNL1        0.0725
     24 C         144.3282  140.9462  157.6791 C.3     1  UNL1        0.0939
     25 C         144.8439  142.1236  156.9059 C.3     1  UNL1        0.1123
     26 O         147.6316  143.2979  158.1302 O.2     1  UNL1       -0.2526
     27 C         147.4728  142.5980  156.8130 C.2     1  UNL1        0.3041
     28 N         148.5674  142.3151  155.8272 N.am    1  UNL1       -0.2870
     29 C         147.9626  141.6005  154.6553 C.3     1  UNL1        0.1124
     30 C         146.4941  141.4418  154.9168 C.3     1  UNL1        0.1162
     31 N         146.1914  142.0583  156.2502 N.am    1  UNL1       -0.2610
     32 H         149.5163  142.5561  155.9312 H       1  UNL1        0.1510
@<TRIPOS>BOND
     1    26    27    2
     2    27    28   am
     3    28    29    1
     4    29    30    1
     5    30    31    1
     6    31    25    1
     7    25    24    1
     8    24    18    1
     9    18    19    1
    10    19    20    1
    11    20    21    1
    12    21     1    1
    13     1     2   ar
    14     2     3   ar
    15     3    11    1
    16    11    12   ar
    17    12    13   ar
    18    13    14   ar
    19    14    15    1
    20    14    16   ar
    21    16    17   ar
    22     3     4   ar
    23     4     5   ar
    24     5     6   ar
    25     6     7   ar
    26     7     8    1
    27     7     9   ar
    28     9    10   ar
    29    21    22    1
    30    22    23    1
    31    31    27   am
    32    23    18    1
    33    10     1   ar
    34    17    11   ar
    35    10     4   ar
    36    28    32    1
@<TRIPOS>MOLECULE
*****
 32 36 0 0 0
SMALL
GASTEIGER

@<TRIPOS>ATOM
      1 C         140.6682  141.6363  163.4103 C.ar    1  UNL1       -0.0035
      2 C         139.6729  141.8871  162.3165 C.ar    1  UNL1        0.0757
      3 N         140.4322  142.2191  161.0662 N.ar    1  UNL1       -0.3052
      4 C         141.8967  142.1735  161.3873 C.ar    1  UNL1        0.0638
      5 C         143.1163  142.4134  160.5477 C.ar    1  UNL1        0.0184
      6 C         144.4817  142.2931  161.1568 C.ar    1  UNL1        0.0129
      7 C         144.6275  141.9329  162.6056 C.ar    1  UNL1        0.0578
      8 CL        145.9931  141.8126  163.2148 Cl      1  UNL1       -0.0822
      9 C         143.4080  141.6929  163.4453 C.ar    1  UNL1        0.0126
     10 C         142.0425  141.8133  162.8361 C.ar    1  UNL1        0.0144
     11 C         139.8323  142.5404  159.7295 C.ar    1  UNL1        0.0642
     12 C         140.2198  143.8025  159.0173 C.ar    1  UNL1        0.0198
     13 C         139.6199  144.1238  157.6805 C.ar    1  UNL1        0.0311
     14 C         138.6326  143.1830  157.0559 C.ar    1  UNL1        0.1402
     15 F         138.0327  143.5043  155.7191 F       1  UNL1       -0.2042
     16 C         138.2451  141.9210  157.7680 C.ar    1  UNL1        0.0311
     17 C         138.8450  141.5997  159.1048 C.ar    1  UNL1        0.0198
     18 N         139.7007  140.5443  167.6674 N.3     1  UNL1       -0.2712
     19 C         139.5118  139.5360  166.5730 C.3     1  UNL1        0.0725
     20 C         139.8343  139.9000  165.1540 C.3     1  UNL1        0.0218
     21 C         140.3457  141.2723  164.8293 C.3     1  UNL1        0.0266
     22 C         140.5345  142.2805  165.9237 C.3     1  UNL1        0.0218
     23 C         140.2121  141.9166  167.3427 C.3     1  UNL1        0.0725
     24 C         139.3782  140.1804  169.0864 C.3     1  UNL1        0.0939
     25 C         140.4852  139.8952  170.0576 C.3     1  UNL1        0.1123
     26 O         140.4438  142.3976  172.1518 O.2     1  UNL1       -0.2526
     27 C         141.5653  142.0465  171.2196 C.2     1  UNL1        0.3041
     28 N         142.8647  142.7840  171.0864 N.am    1  UNL1       -0.2870
     29 C         143.6867  142.0896  170.0415 C.3     1  UNL1        0.1124
     30 C         142.8955  140.9229  169.5289 C.3     1  UNL1        0.1162
     31 N         141.5844  140.8963  170.2570 N.am    1  UNL1       -0.2610
     32 H         143.1311  143.5834  171.5954 H       1  UNL1        0.1510
@<TRIPOS>BOND
     1    26    27    2
     2    27    28   am
     3    28    29    1
     4    29    30    1
     5    30    31    1
     6    31    25    1
     7    25    24    1
     8    24    18    1
     9    18    19    1
    10    19    20    1
    11    20    21    1
    12    21     1    1
    13     1     2   ar
    14     2     3   ar
    15     3    11    1
    16    11    12   ar
    17    12    13   ar
    18    13    14   ar
    19    14    15    1
    20    14    16   ar
    21    16    17   ar
    22     3     4   ar
    23     4     5   ar
    24     5     6   ar
    25     6     7   ar
    26     7     8    1
    27     7     9   ar
    28     9    10   ar
    29    21    22    1
    30    22    23    1
    31    31    27   am
    32    23    18    1
    33    10     1   ar
    34    17    11   ar
    35    10     4   ar
    36    28    32    1
@<TRIPOS>MOLECULE
*****
 32 36 0 0 0
SMALL
GASTEIGER

@<TRIPOS>ATOM
      1 C         140.0778  141.1899  162.7254 C.ar    1  UNL1       -0.0035
      2 C         139.5768  141.7011  164.0436 C.ar    1  UNL1        0.0757
      3 N         140.4462  141.1284  165.1235 N.ar    1  UNL1       -0.3052
      4 C         141.4845  140.2633  164.4727 C.ar    1  UNL1        0.0638
      5 C         142.6079  139.4459  165.0382 C.ar    1  UNL1        0.0184
      6 C         143.5036  138.6665  164.1216 C.ar    1  UNL1        0.0129
      7 C         143.2759  138.7046  162.6395 C.ar    1  UNL1        0.0578
      8 CL        144.1717  137.9251  161.7229 Cl      1  UNL1       -0.0822
      9 C         142.1526  139.5220  162.0740 C.ar    1  UNL1        0.0126
     10 C         141.2569  140.3014  162.9906 C.ar    1  UNL1        0.0144
     11 C         140.3025  141.3771  166.5957 C.ar    1  UNL1        0.0642
     12 C         139.8526  140.2704  167.5030 C.ar    1  UNL1        0.0198
     13 C         139.7089  140.5192  168.9752 C.ar    1  UNL1        0.0311
     14 C         140.0151  141.8745  169.5403 C.ar    1  UNL1        0.1402
     15 F         139.8714  142.1232  171.0125 F       1  UNL1       -0.2042
     16 C         140.4650  142.9811  168.6331 C.ar    1  UNL1        0.0311
     17 C         140.6087  142.7324  167.1609 C.ar    1  UNL1        0.0198
     18 N         138.3477  142.1531  158.6845 N.3     1  UNL1       -0.2712
     19 C         139.1147  143.1974  159.4402 C.3     1  UNL1        0.0725
     20 C         139.6914  142.8764  160.7871 C.3     1  UNL1        0.0218
     21 C         139.5011  141.5110  161.3784 C.3     1  UNL1        0.0266
     22 C         138.7341  140.4668  160.6227 C.3     1  UNL1        0.0218
     23 C         138.1574  140.7878  159.2757 C.3     1  UNL1        0.0725
     24 C         137.7709  142.4742  157.3375 C.3     1  UNL1        0.0939
     25 C         138.6576  143.0004  156.2481 C.3     1  UNL1        0.1123
     26 O         136.7068  144.4610  154.0778 O.2     1  UNL1       -0.2526
     27 C         137.7519  145.1342  154.9171 C.2     1  UNL1        0.3041
     28 N         138.0839  146.5970  154.9061 N.am    1  UNL1       -0.2870
     29 C         139.1858  146.8296  155.8969 C.3     1  UNL1        0.1124
     30 C         139.5348  145.5107  156.5202 C.3     1  UNL1        0.1162
     31 N         138.6487  144.4629  155.9146 N.am    1  UNL1       -0.2610
     32 H         137.6541  147.2837  154.3468 H       1  UNL1        0.1510
@<TRIPOS>BOND
     1    26    27    2
     2    27    28   am
     3    28    29    1
     4    29    30    1
     5    30    31    1
     6    31    25    1
     7    25    24    1
     8    24    18    1
     9    18    19    1
    10    19    20    1
    11    20    21    1
    12    21     1    1
    13     1     2   ar
    14     2     3   ar
    15     3    11    1
    16    11    12   ar
    17    12    13   ar
    18    13    14   ar
    19    14    15    1
    20    14    16   ar
    21    16    17   ar
    22     3     4   ar
    23     4     5   ar
    24     5     6   ar
    25     6     7   ar
    26     7     8    1
    27     7     9   ar
    28     9    10   ar
    29    21    22    1
    30    22    23    1
    31    31    27   am
    32    23    18    1
    33    10     1   ar
    34    17    11   ar
    35    10     4   ar
    36    28    32    1
