@<TRIPOS>MOLECULE
*****
 42 47 0 0 0
SMALL
GASTEIGER

@<TRIPOS>ATOM
      1 C         137.8732  140.0478  162.3426 C.3     1  UNL1        0.0700
      2 C         137.9525  141.1486  161.3268 C.3     1  UNL1        0.0193
      3 C         137.9374  142.5813  161.7707 C.3     1  UNL1        0.0286
      4 C         137.8430  142.9132  163.2306 C.3     1  UNL1        0.0932
      5 C         137.7637  141.8124  164.2464 C.3     1  UNL1        0.0286
      6 C         137.7788  140.3796  163.8023 C.3     1  UNL1        0.0193
      7 O         137.8479  142.1133  163.0354 O.3     1  UNL1       -0.3572
      8 C         137.8615  140.8178  162.6339 C.3     1  UNL1        0.1562
      9 N         137.8883  138.6151  161.8986 N.3     1  UNL1       -0.2926
     10 H         137.5100  138.0641  162.6691 H       1  UNL1        0.1236
     11 C         139.1806  137.9679  161.4970 C.3     1  UNL1        0.1152
     12 O         145.9267  141.7024  162.6340 O.2     1  UNL1       -0.2707
     13 C         144.9158  140.6842  163.0714 C.2     1  UNL1        0.2718
     14 C         145.1427  139.8927  164.3251 C.3     1  UNL1        0.2898
     15 O         144.1317  138.8745  164.7625 O.3     1  UNL1       -0.4628
     16 C         142.8940  138.6478  163.9462 C.ar    1  UNL1        0.1708
     17 C         141.8830  137.6296  164.3836 C.ar    1  UNL1        0.0411
     18 C         140.6452  137.4030  163.5672 C.ar    1  UNL1        0.0193
     19 C         140.4183  138.1945  162.3134 C.ar    1  UNL1        0.0765
     20 N         141.4293  139.2127  161.8760 N.ar    1  UNL1       -0.2304
     21 C         142.6671  139.4394  162.6924 C.ar    1  UNL1        0.1682
     22 N         143.6780  140.4575  162.2550 N.am    1  UNL1       -0.2639
     23 H         143.5291  140.9771  161.4321 H       1  UNL1        0.1565
     24 C         137.8279  144.3459  163.6745 C.3     1  UNL1        0.0320
     25 C         138.9218  144.8690  164.5575 C.3     1  UNL1        0.0327
     26 C         140.3518  144.5240  164.2644 C.ar    1  UNL1        0.0261
     27 C         141.0378  145.1204  163.0711 C.ar    1  UNL1        0.1566
     28 F         140.2938  146.0618  162.1710 F       1  UNL1       -0.2028
     29 C         142.4679  144.7754  162.7779 C.ar    1  UNL1        0.1281
     30 N         143.2120  143.8340  163.6780 N.ar    1  UNL1       -0.2400
     31 C         142.5260  143.2377  164.8712 C.ar    1  UNL1        0.0990
     32 C         143.2701  142.2963  165.7713 C.ar    1  UNL1        0.0254
     33 C         142.5841  141.6999  166.9646 C.ar    1  UNL1        0.0593
     34 C         141.1541  142.0449  167.2577 C.ar    1  UNL1        0.2252
     35 N         140.4100  142.9863  166.3577 N.ar    1  UNL1       -0.2104
     36 C         141.0959  143.5827  165.1644 C.ar    1  UNL1        0.1002
     37 O         140.4682  141.4486  168.4510 O.3     1  UNL1       -0.4509
     38 C         140.1096  139.9921  168.4597 C.3     1  UNL1        0.3095
     39 C         138.9272  139.5061  167.6749 C.3     1  UNL1        0.4381
     40 F         137.7449  139.0201  166.8901 F       1  UNL1       -0.1663
     41 F         138.0531  139.6859  168.8805 F       1  UNL1       -0.1663
     42 F         139.8014  139.3262  166.4693 F       1  UNL1       -0.1663
@<TRIPOS>BOND
     1    12    13    2
     2    13    14    1
     3    14    15    1
     4    15    16    1
     5    16    17   ar
     6    17    18   ar
     7    18    19   ar
     8    19    11    1
     9    11     9    1
    10     9     1    1
    11     1     2    1
    12     2     3    1
    13     3     4    1
    14     4    24    1
    15    24    25    1
    16    25    26    1
    17    26    27   ar
    18    27    28    1
    19    27    29   ar
    20    29    30   ar
    21    30    31   ar
    22    31    32   ar
    23    32    33   ar
    24    33    34   ar
    25    34    37    1
    26    37    38    1
    27    38    39    1
    28    39    40    1
    29    39    41    1
    30    39    42    1
    31    34    35   ar
    32    35    36   ar
    33     4     5    1
    34     5     6    1
    35     4     7    1
    36     7     8    1
    37    19    20   ar
    38    20    21   ar
    39    21    22    1
    40    22    13   am
    41    21    16   ar
    42     6     1    1
    43     8     1    1
    44    36    26   ar
    45    36    31   ar
    46     9    10    1
    47    22    23    1
@<TRIPOS>MOLECULE
*****
 42 47 0 0 0
SMALL
GASTEIGER

@<TRIPOS>ATOM
      1 C         144.4059  139.7040  163.4280 C.3     1  UNL1        0.0700
      2 C         143.4970  139.2145  162.3398 C.3     1  UNL1        0.0193
      3 C         142.3397  138.3209  162.6746 C.3     1  UNL1        0.0286
      4 C         142.0914  137.9167  164.0976 C.3     1  UNL1        0.0932
      5 C         143.0003  138.4061  165.1858 C.3     1  UNL1        0.0286
      6 C         144.1576  139.2998  164.8510 C.3     1  UNL1        0.0193
      7 O         142.7383  138.4079  163.9630 O.3     1  UNL1       -0.3572
      8 C         143.7847  139.2160  163.6603 C.3     1  UNL1        0.1562
      9 N         145.5632  140.5976  163.0933 N.3     1  UNL1       -0.2926
     10 H         146.3972  140.1574  163.4818 H       1  UNL1        0.1236
     11 C         145.5691  142.0235  163.5593 C.3     1  UNL1        0.1152
     12 O         140.5245  145.4787  158.7258 O.2     1  UNL1       -0.2707
     13 C         141.0003  145.1922  160.1192 C.2     1  UNL1        0.2718
     14 C         140.2703  145.7710  161.2948 C.3     1  UNL1        0.2898
     15 O         140.7461  145.4845  162.6882 O.3     1  UNL1       -0.4628
     16 C         141.9518  144.6193  162.9060 C.ar    1  UNL1        0.1708
     17 C         142.4276  144.3328  164.2994 C.ar    1  UNL1        0.0411
     18 C         143.6333  143.4675  164.5172 C.ar    1  UNL1        0.0193
     19 C         144.3634  142.8887  163.3415 C.ar    1  UNL1        0.0765
     20 N         143.8876  143.1752  161.9481 N.ar    1  UNL1       -0.2304
     21 C         142.6818  144.0405  161.7304 C.ar    1  UNL1        0.1682
     22 N         142.2060  144.3270  160.3369 N.am    1  UNL1       -0.2639
     23 H         142.6852  143.9471  159.5653 H       1  UNL1        0.1565
     24 C         140.9341  137.0230  164.4324 C.3     1  UNL1        0.0320
     25 C         139.6367  137.6173  164.8943 C.3     1  UNL1        0.0327
     26 C         139.1765  138.9341  164.3428 C.ar    1  UNL1        0.0261
     27 C         138.4377  138.9840  163.0382 C.ar    1  UNL1        0.1566
     28 F         138.1592  137.7170  162.2852 F       1  UNL1       -0.2028
     29 C         137.9775  140.3008  162.4868 C.ar    1  UNL1        0.1281
     30 N         138.2560  141.5678  163.2398 N.ar    1  UNL1       -0.2400
     31 C         138.9947  141.5180  164.5443 C.ar    1  UNL1        0.0990
     32 C         139.2732  142.7851  165.2973 C.ar    1  UNL1        0.0254
     33 C         140.0120  142.7352  166.6019 C.ar    1  UNL1        0.0593
     34 C         140.4722  141.4184  167.1534 C.ar    1  UNL1        0.2252
     35 N         140.1937  140.1514  166.4003 N.ar    1  UNL1       -0.2104
     36 C         139.4550  140.2012  165.0958 C.ar    1  UNL1        0.1002
     37 O         141.2109  141.3686  168.4579 O.3     1  UNL1       -0.4509
     38 C         141.8600  142.6075  169.0000 C.3     1  UNL1        0.3095
     39 C         143.2901  142.5690  169.4511 C.3     1  UNL1        0.4381
     40 F         144.7201  142.5305  169.9021 F       1  UNL1       -0.1663
     41 F         143.7423  142.6273  168.0221 F       1  UNL1       -0.1663
     42 F         142.8379  142.5107  170.8801 F       1  UNL1       -0.1663
@<TRIPOS>BOND
     1    12    13    2
     2    13    14    1
     3    14    15    1
     4    15    16    1
     5    16    17   ar
     6    17    18   ar
     7    18    19   ar
     8    19    11    1
     9    11     9    1
    10     9     1    1
    11     1     2    1
    12     2     3    1
    13     3     4    1
    14     4    24    1
    15    24    25    1
    16    25    26    1
    17    26    27   ar
    18    27    28    1
    19    27    29   ar
    20    29    30   ar
    21    30    31   ar
    22    31    32   ar
    23    32    33   ar
    24    33    34   ar
    25    34    37    1
    26    37    38    1
    27    38    39    1
    28    39    40    1
    29    39    41    1
    30    39    42    1
    31    34    35   ar
    32    35    36   ar
    33     4     5    1
    34     5     6    1
    35     4     7    1
    36     7     8    1
    37    19    20   ar
    38    20    21   ar
    39    21    22    1
    40    22    13   am
    41    21    16   ar
    42     6     1    1
    43     8     1    1
    44    36    26   ar
    45    36    31   ar
    46     9    10    1
    47    22    23    1
@<TRIPOS>MOLECULE
*****
 42 47 0 0 0
SMALL
GASTEIGER

@<TRIPOS>ATOM
      1 C         144.4078  139.7729  163.4081 C.3     1  UNL1        0.0700
      2 C         144.1157  139.5732  164.8657 C.3     1  UNL1        0.0193
      3 C         142.9108  138.7860  165.2882 C.3     1  UNL1        0.0286
      4 C         141.9980  138.1985  164.2529 C.3     1  UNL1        0.0932
      5 C         142.2901  138.3982  162.7953 C.3     1  UNL1        0.0286
      6 C         143.4951  139.1854  162.3729 C.3     1  UNL1        0.0193
      7 O         142.6461  138.6223  163.9731 O.3     1  UNL1       -0.3572
      8 C         143.7356  139.3341  163.5911 C.3     1  UNL1        0.1562
      9 N         145.6127  140.5601  162.9856 N.3     1  UNL1       -0.2926
     10 H         146.4236  140.1049  163.4047 H       1  UNL1        0.1236
     11 C         145.7122  142.0183  163.3234 C.3     1  UNL1        0.1152
     12 O         140.3428  145.4577  158.8412 O.2     1  UNL1       -0.2707
     13 C         140.9299  145.1969  160.1967 C.2     1  UNL1        0.2718
     14 C         140.3145  145.8218  161.4135 C.3     1  UNL1        0.2898
     15 O         140.9017  145.5610  162.7689 O.3     1  UNL1       -0.4628
     16 C         142.1043  144.6754  162.9075 C.ar    1  UNL1        0.1708
     17 C         142.6915  144.4146  164.2630 C.ar    1  UNL1        0.0411
     18 C         143.8941  143.5289  164.4016 C.ar    1  UNL1        0.0193
     19 C         144.5096  142.9040  163.1847 C.ar    1  UNL1        0.0765
     20 N         143.9224  143.1647  161.8293 N.ar    1  UNL1       -0.2304
     21 C         142.7197  144.0505  161.6907 C.ar    1  UNL1        0.1682
     22 N         142.1325  144.3113  160.3353 N.am    1  UNL1       -0.2639
     23 H         142.5365  143.9011  159.5366 H       1  UNL1        0.1565
     24 C         140.7931  137.4113  164.6754 C.3     1  UNL1        0.0320
     25 C         139.5273  138.1221  165.0529 C.3     1  UNL1        0.0327
     26 C         138.9692  139.1872  164.1562 C.ar    1  UNL1        0.0261
     27 C         138.2734  138.8068  162.8829 C.ar    1  UNL1        0.1566
     28 F         138.1358  137.3613  162.5063 F       1  UNL1       -0.2028
     29 C         137.7153  139.8718  161.9861 C.ar    1  UNL1        0.1281
     30 N         137.8529  141.3172  162.3627 N.ar    1  UNL1       -0.2400
     31 C         138.5486  141.6976  163.6359 C.ar    1  UNL1        0.0990
     32 C         138.6862  143.1431  164.0124 C.ar    1  UNL1        0.0254
     33 C         139.3820  143.5235  165.2857 C.ar    1  UNL1        0.0593
     34 C         139.9401  142.4585  166.1825 C.ar    1  UNL1        0.2252
     35 N         139.8025  141.0130  165.8059 N.ar    1  UNL1       -0.2104
     36 C         139.1068  140.6326  164.5327 C.ar    1  UNL1        0.1002
     37 O         140.6358  142.8389  167.4557 O.3     1  UNL1       -0.4509
     38 C         140.4422  142.0120  168.6922 C.3     1  UNL1        0.3095
     39 C         139.8756  142.6381  169.9320 C.3     1  UNL1        0.4381
     40 F         139.3091  143.2642  171.1717 F       1  UNL1       -0.1663
     41 F         139.4921  141.2807  170.4422 F       1  UNL1       -0.1663
     42 F         140.2591  143.9955  169.4218 F       1  UNL1       -0.1663
@<TRIPOS>BOND
     1    12    13    2
     2    13    14    1
     3    14    15    1
     4    15    16    1
     5    16    17   ar
     6    17    18   ar
     7    18    19   ar
     8    19    11    1
     9    11     9    1
    10     9     1    1
    11     1     2    1
    12     2     3    1
    13     3     4    1
    14     4    24    1
    15    24    25    1
    16    25    26    1
    17    26    27   ar
    18    27    28    1
    19    27    29   ar
    20    29    30   ar
    21    30    31   ar
    22    31    32   ar
    23    32    33   ar
    24    33    34   ar
    25    34    37    1
    26    37    38    1
    27    38    39    1
    28    39    40    1
    29    39    41    1
    30    39    42    1
    31    34    35   ar
    32    35    36   ar
    33     4     5    1
    34     5     6    1
    35     4     7    1
    36     7     8    1
    37    19    20   ar
    38    20    21   ar
    39    21    22    1
    40    22    13   am
    41    21    16   ar
    42     6     1    1
    43     8     1    1
    44    36    26   ar
    45    36    31   ar
    46     9    10    1
    47    22    23    1
@<TRIPOS>MOLECULE
*****
 42 47 0 0 0
SMALL
GASTEIGER

@<TRIPOS>ATOM
      1 C         140.1131  138.1631  161.6285 C.3     1  UNL1        0.0700
      2 C         141.1662  138.9545  160.9110 C.3     1  UNL1        0.0193
      3 C         142.5153  139.1487  161.5373 C.3     1  UNL1        0.0286
      4 C         142.8113  138.5516  162.8812 C.3     1  UNL1        0.0932
      5 C         141.7582  137.7603  163.5987 C.3     1  UNL1        0.0286
      6 C         140.4091  137.5660  162.9723 C.3     1  UNL1        0.0193
      7 O         142.0574  138.4182  162.5781 O.3     1  UNL1       -0.3572
      8 C         140.8376  138.2426  162.0117 C.3     1  UNL1        0.1562
      9 N         138.7641  137.9689  161.0022 N.3     1  UNL1       -0.2926
     10 H         138.8954  138.0377  159.9930 H       1  UNL1        0.1236
     11 C         137.6336  138.8893  161.3555 C.3     1  UNL1        0.1152
     12 O         141.0313  145.6726  159.5691 O.2     1  UNL1       -0.2707
     13 C         140.1755  144.8503  160.4863 C.2     1  UNL1        0.2718
     14 C         139.5963  145.4666  161.7251 C.3     1  UNL1        0.2898
     15 O         138.7404  144.6442  162.6422 O.3     1  UNL1       -0.4628
     16 C         138.4637  143.2055  162.3205 C.ar    1  UNL1        0.1708
     17 C         137.6078  142.3831  163.2377 C.ar    1  UNL1        0.0411
     18 C         137.3311  140.9444  162.9160 C.ar    1  UNL1        0.0193
     19 C         137.9103  140.3280  161.6772 C.ar    1  UNL1        0.0765
     20 N         138.7662  141.1504  160.7600 N.ar    1  UNL1       -0.2304
     21 C         139.0429  142.5892  161.0818 C.ar    1  UNL1        0.1682
     22 N         139.8988  143.4116  160.1646 N.am    1  UNL1       -0.2639
     23 H         140.2789  143.0070  159.3515 H       1  UNL1        0.1565
     24 C         144.1603  138.7459  163.5076 C.3     1  UNL1        0.0320
     25 C         144.3309  139.7220  164.6336 C.3     1  UNL1        0.0327
     26 C         143.8986  141.1481  164.4620 C.ar    1  UNL1        0.0261
     27 C         144.8082  142.1314  163.7868 C.ar    1  UNL1        0.1566
     28 F         146.1500  141.6887  163.2834 F       1  UNL1       -0.2028
     29 C         144.3759  143.5575  163.6151 C.ar    1  UNL1        0.1281
     30 N         143.0341  144.0002  164.1186 N.ar    1  UNL1       -0.2400
     31 C         142.1245  143.0170  164.7937 C.ar    1  UNL1        0.0990
     32 C         140.7827  143.4597  165.2972 C.ar    1  UNL1        0.0254
     33 C         139.8731  142.4764  165.9723 C.ar    1  UNL1        0.0593
     34 C         140.3054  141.0503  166.1440 C.ar    1  UNL1        0.2252
     35 N         141.6472  140.6076  165.6405 N.ar    1  UNL1       -0.2104
     36 C         142.5568  141.5908  164.9654 C.ar    1  UNL1        0.1002
     37 O         139.3958  140.0670  166.8191 O.3     1  UNL1       -0.4509
     38 C         138.5195  139.1691  165.9971 C.3     1  UNL1        0.3095
     39 C         137.9118  137.9444  166.6142 C.3     1  UNL1        0.4381
     40 F         137.3041  136.7196  167.2312 F       1  UNL1       -0.1663
     41 F         138.4242  137.1156  165.4738 F       1  UNL1       -0.1663
     42 F         137.3994  138.7731  167.7546 F       1  UNL1       -0.1663
@<TRIPOS>BOND
     1    12    13    2
     2    13    14    1
     3    14    15    1
     4    15    16    1
     5    16    17   ar
     6    17    18   ar
     7    18    19   ar
     8    19    11    1
     9    11     9    1
    10     9     1    1
    11     1     2    1
    12     2     3    1
    13     3     4    1
    14     4    24    1
    15    24    25    1
    16    25    26    1
    17    26    27   ar
    18    27    28    1
    19    27    29   ar
    20    29    30   ar
    21    30    31   ar
    22    31    32   ar
    23    32    33   ar
    24    33    34   ar
    25    34    37    1
    26    37    38    1
    27    38    39    1
    28    39    40    1
    29    39    41    1
    30    39    42    1
    31    34    35   ar
    32    35    36   ar
    33     4     5    1
    34     5     6    1
    35     4     7    1
    36     7     8    1
    37    19    20   ar
    38    20    21   ar
    39    21    22    1
    40    22    13   am
    41    21    16   ar
    42     6     1    1
    43     8     1    1
    44    36    26   ar
    45    36    31   ar
    46     9    10    1
    47    22    23    1
@<TRIPOS>MOLECULE
*****
 42 47 0 0 0
SMALL
GASTEIGER

@<TRIPOS>ATOM
      1 C         140.3790  143.8248  161.4253 C.3     1  UNL1        0.0700
      2 C         140.3298  144.6948  162.6463 C.3     1  UNL1        0.0193
      3 C         141.5703  144.9165  163.4597 C.3     1  UNL1        0.0286
      4 C         142.8602  144.2682  163.0523 C.3     1  UNL1        0.0932
      5 C         142.9095  143.3982  161.8314 C.3     1  UNL1        0.0286
      6 C         141.6688  143.1765  161.0179 C.3     1  UNL1        0.0193
      7 O         142.2065  144.1173  162.5750 O.3     1  UNL1       -0.3572
      8 C         141.0848  143.9168  161.8394 C.3     1  UNL1        0.1562
      9 N         139.1385  143.6031  160.6119 N.3     1  UNL1       -0.2926
     10 H         138.7745  144.5254  160.3726 H       1  UNL1        0.1236
     11 C         137.9943  142.8218  161.1868 C.3     1  UNL1        0.1152
     12 O         137.7289  138.5033  167.6698 O.2     1  UNL1       -0.2707
     13 C         138.0755  138.6462  166.2174 C.2     1  UNL1        0.2718
     14 C         138.6802  137.4925  165.4737 C.3     1  UNL1        0.2898
     15 O         139.0268  137.6354  164.0213 O.3     1  UNL1       -0.4628
     16 C         138.7687  138.9319  163.3126 C.ar    1  UNL1        0.1708
     17 C         139.1152  139.0748  161.8602 C.ar    1  UNL1        0.0411
     18 C         138.8571  140.3714  161.1516 C.ar    1  UNL1        0.0193
     19 C         138.2524  141.5252  161.8954 C.ar    1  UNL1        0.0765
     20 N         137.9058  141.3823  163.3478 N.ar    1  UNL1       -0.2304
     21 C         138.1640  140.0856  164.0564 C.ar    1  UNL1        0.1682
     22 N         137.8174  139.9428  165.5088 N.am    1  UNL1       -0.2639
     23 H         137.4205  140.7000  165.9970 H       1  UNL1        0.1565
     24 C         144.1008  144.4900  163.8658 C.3     1  UNL1        0.0320
     25 C         144.3772  143.6283  165.0621 C.3     1  UNL1        0.0327
     26 C         144.2331  142.1385  164.9627 C.ar    1  UNL1        0.0261
     27 C         145.1557  141.3530  164.0785 C.ar    1  UNL1        0.1566
     28 F         146.2225  142.0573  163.2937 F       1  UNL1       -0.2028
     29 C         145.0116  139.8633  163.9792 C.ar    1  UNL1        0.1281
     30 N         143.9448  139.1590  164.7640 N.ar    1  UNL1       -0.2400
     31 C         143.0221  139.9445  165.6481 C.ar    1  UNL1        0.0990
     32 C         141.9553  139.2402  166.4329 C.ar    1  UNL1        0.0254
     33 C         141.0327  140.0257  167.3171 C.ar    1  UNL1        0.0593
     34 C         141.1768  141.5154  167.4165 C.ar    1  UNL1        0.2252
     35 N         142.2436  142.2197  166.6317 N.ar    1  UNL1       -0.2104
     36 C         143.1663  141.4343  165.7475 C.ar    1  UNL1        0.1002
     37 O         140.2542  142.3008  168.3007 O.3     1  UNL1       -0.4509
     38 C         140.5278  142.3979  169.7723 C.3     1  UNL1        0.3095
     39 C         141.7743  143.0747  170.2604 C.3     1  UNL1        0.4381
     40 F         143.0208  143.7514  170.7485 F       1  UNL1       -0.1663
     41 F         142.4243  141.7369  170.4550 F       1  UNL1       -0.1663
     42 F         141.1243  144.4124  170.0658 F       1  UNL1       -0.1663
@<TRIPOS>BOND
     1    12    13    2
     2    13    14    1
     3    14    15    1
     4    15    16    1
     5    16    17   ar
     6    17    18   ar
     7    18    19   ar
     8    19    11    1
     9    11     9    1
    10     9     1    1
    11     1     2    1
    12     2     3    1
    13     3     4    1
    14     4    24    1
    15    24    25    1
    16    25    26    1
    17    26    27   ar
    18    27    28    1
    19    27    29   ar
    20    29    30   ar
    21    30    31   ar
    22    31    32   ar
    23    32    33   ar
    24    33    34   ar
    25    34    37    1
    26    37    38    1
    27    38    39    1
    28    39    40    1
    29    39    41    1
    30    39    42    1
    31    34    35   ar
    32    35    36   ar
    33     4     5    1
    34     5     6    1
    35     4     7    1
    36     7     8    1
    37    19    20   ar
    38    20    21   ar
    39    21    22    1
    40    22    13   am
    41    21    16   ar
    42     6     1    1
    43     8     1    1
    44    36    26   ar
    45    36    31   ar
    46     9    10    1
    47    22    23    1
@<TRIPOS>MOLECULE
*****
 42 47 0 0 0
SMALL
GASTEIGER

@<TRIPOS>ATOM
      1 C         142.2244  144.5515  163.4451 C.3     1  UNL1        0.0700
      2 C         143.2151  144.0089  162.4582 C.3     1  UNL1        0.0193
      3 C         143.9686  142.7492  162.7672 C.3     1  UNL1        0.0286
      4 C         143.7313  142.0320  164.0631 C.3     1  UNL1        0.0932
      5 C         142.7406  142.5746  165.0501 C.3     1  UNL1        0.0286
      6 C         141.9871  143.8344  164.7410 C.3     1  UNL1        0.0193
      7 O         143.2946  142.7188  163.9382 O.3     1  UNL1       -0.3572
      8 C         142.6134  143.8579  163.6588 C.3     1  UNL1        0.1562
      9 N         141.4710  145.8111  163.1362 N.3     1  UNL1       -0.2926
     10 H         141.1751  146.2039  164.0298 H       1  UNL1        0.1236
     11 C         140.2540  145.7616  162.2606 C.3     1  UNL1        0.1152
     12 O         138.7926  139.1754  158.3572 O.2     1  UNL1       -0.2707
     13 C         138.5124  140.0903  159.5124 C.2     1  UNL1        0.2718
     14 C         137.4648  139.7245  160.5218 C.3     1  UNL1        0.2898
     15 O         137.1846  140.6393  161.6770 O.3     1  UNL1       -0.4628
     16 C         137.9519  141.9199  161.8229 C.ar    1  UNL1        0.1708
     17 C         137.6717  142.8347  162.9782 C.ar    1  UNL1        0.0411
     18 C         138.4390  144.1153  163.1241 C.ar    1  UNL1        0.0193
     19 C         139.4867  144.4811  162.1147 C.ar    1  UNL1        0.0765
     20 N         139.7669  143.5662  160.9595 N.ar    1  UNL1       -0.2304
     21 C         138.9995  142.2856  160.8136 C.ar    1  UNL1        0.1682
     22 N         139.2797  141.3708  159.6583 N.am    1  UNL1       -0.2639
     23 H         139.9673  141.6109  158.9959 H       1  UNL1        0.1565
     24 C         144.4847  140.7723  164.3721 C.3     1  UNL1        0.0320
     25 C         143.7624  139.5863  164.9392 C.3     1  UNL1        0.0327
     26 C         142.6049  138.9876  164.1965 C.ar    1  UNL1        0.0261
     27 C         142.8198  138.3647  162.8489 C.ar    1  UNL1        0.1566
     28 F         144.1923  138.3406  162.2441 F       1  UNL1       -0.2028
     29 C         141.6624  137.7660  162.1061 C.ar    1  UNL1        0.1281
     30 N         140.2899  137.7900  162.7109 N.ar    1  UNL1       -0.2400
     31 C         140.0749  138.4128  164.0584 C.ar    1  UNL1        0.0990
     32 C         138.7024  138.4369  164.6632 C.ar    1  UNL1        0.0254
     33 C         138.4875  139.0598  166.0108 C.ar    1  UNL1        0.0593
     34 C         139.6450  139.6585  166.7535 C.ar    1  UNL1        0.2252
     35 N         141.0174  139.6344  166.1488 N.ar    1  UNL1       -0.2104
     36 C         141.2324  139.0116  164.8012 C.ar    1  UNL1        0.1002
     37 O         139.4300  140.2813  168.1010 O.3     1  UNL1       -0.4509
     38 C         140.5398  141.0458  168.7597 C.3     1  UNL1        0.3095
     39 C         140.3716  142.5067  169.0555 C.3     1  UNL1        0.4381
     40 F         140.2035  143.9676  169.3514 F       1  UNL1       -0.1663
     41 F         141.3838  142.8372  167.9990 F       1  UNL1       -0.1663
     42 F         139.3595  142.1763  170.1121 F       1  UNL1       -0.1663
@<TRIPOS>BOND
     1    12    13    2
     2    13    14    1
     3    14    15    1
     4    15    16    1
     5    16    17   ar
     6    17    18   ar
     7    18    19   ar
     8    19    11    1
     9    11     9    1
    10     9     1    1
    11     1     2    1
    12     2     3    1
    13     3     4    1
    14     4    24    1
    15    24    25    1
    16    25    26    1
    17    26    27   ar
    18    27    28    1
    19    27    29   ar
    20    29    30   ar
    21    30    31   ar
    22    31    32   ar
    23    32    33   ar
    24    33    34   ar
    25    34    37    1
    26    37    38    1
    27    38    39    1
    28    39    40    1
    29    39    41    1
    30    39    42    1
    31    34    35   ar
    32    35    36   ar
    33     4     5    1
    34     5     6    1
    35     4     7    1
    36     7     8    1
    37    19    20   ar
    38    20    21   ar
    39    21    22    1
    40    22    13   am
    41    21    16   ar
    42     6     1    1
    43     8     1    1
    44    36    26   ar
    45    36    31   ar
    46     9    10    1
    47    22    23    1
@<TRIPOS>MOLECULE
*****
 42 47 0 0 0
SMALL
GASTEIGER

@<TRIPOS>ATOM
      1 C         137.8904  140.3135  163.4544 C.3     1  UNL1        0.0700
      2 C         138.1937  140.0867  164.9058 C.3     1  UNL1        0.0193
      3 C         139.1804  139.0317  165.3099 C.3     1  UNL1        0.0286
      4 C         139.8639  138.2034  164.2625 C.3     1  UNL1        0.0932
      5 C         139.5606  138.4302  162.8111 C.3     1  UNL1        0.0286
      6 C         138.5739  139.4853  162.4071 C.3     1  UNL1        0.0193
      7 O         139.3307  138.7698  163.9926 O.3     1  UNL1       -0.3572
      8 C         138.4385  139.7237  163.6272 C.3     1  UNL1        0.1562
      9 N         136.9037  141.3685  163.0503 N.3     1  UNL1       -0.2926
     10 H         136.5543  141.1072  162.1284 H       1  UNL1        0.1236
     11 C         137.3340  142.8026  162.9599 C.3     1  UNL1        0.1152
     12 O         144.3580  145.5051  164.9871 O.2     1  UNL1       -0.2707
     13 C         143.4330  144.9410  163.9497 C.2     1  UNL1        0.2718
     14 C         143.9241  144.7136  162.5508 C.3     1  UNL1        0.2898
     15 O         142.9991  144.1496  161.5135 O.3     1  UNL1       -0.4628
     16 C         141.5828  143.8128  161.8751 C.ar    1  UNL1        0.1708
     17 C         140.6578  143.2487  160.8377 C.ar    1  UNL1        0.0411
     18 C         139.2415  142.9120  161.1993 C.ar    1  UNL1        0.0193
     19 C         138.7502  143.1394  162.5983 C.ar    1  UNL1        0.0765
     20 N         139.6753  143.7035  163.6356 N.ar    1  UNL1       -0.2304
     21 C         141.0916  144.0402  163.2740 C.ar    1  UNL1        0.1682
     22 N         142.0167  144.6043  164.3113 N.am    1  UNL1       -0.2639
     23 H         141.6943  144.7535  165.2295 H       1  UNL1        0.1565
     24 C         140.8506  137.1484  164.6666 C.3     1  UNL1        0.0320
     25 C         142.2550  137.5334  165.0265 C.3     1  UNL1        0.0327
     26 C         142.7444  138.9249  164.7541 C.ar    1  UNL1        0.0261
     27 C         143.1526  139.3180  163.3653 C.ar    1  UNL1        0.1566
     28 F         143.0714  138.3196  162.2488 F       1  UNL1       -0.2028
     29 C         143.6420  140.7095  163.0930 C.ar    1  UNL1        0.1281
     30 N         143.7233  141.7079  164.2094 N.ar    1  UNL1       -0.2400
     31 C         143.3151  141.3148  165.5983 C.ar    1  UNL1        0.0990
     32 C         143.3964  142.3133  166.7148 C.ar    1  UNL1        0.0254
     33 C         142.9882  141.9201  168.1036 C.ar    1  UNL1        0.0593
     34 C         142.4987  140.5286  168.3759 C.ar    1  UNL1        0.2252
     35 N         142.4175  139.5302  167.2595 N.ar    1  UNL1       -0.2104
     36 C         142.8257  139.9233  165.8706 C.ar    1  UNL1        0.1002
     37 O         142.0906  140.1356  169.7648 O.3     1  UNL1       -0.4509
     38 C         140.9562  140.8456  170.4424 C.3     1  UNL1        0.3095
     39 C         139.5409  140.4328  170.1657 C.3     1  UNL1        0.4381
     40 F         138.1256  140.0202  169.8891 F       1  UNL1       -0.1663
     41 F         139.4769  141.4125  169.0317 F       1  UNL1       -0.1663
     42 F         139.6048  139.4532  171.2998 F       1  UNL1       -0.1663
@<TRIPOS>BOND
     1    12    13    2
     2    13    14    1
     3    14    15    1
     4    15    16    1
     5    16    17   ar
     6    17    18   ar
     7    18    19   ar
     8    19    11    1
     9    11     9    1
    10     9     1    1
    11     1     2    1
    12     2     3    1
    13     3     4    1
    14     4    24    1
    15    24    25    1
    16    25    26    1
    17    26    27   ar
    18    27    28    1
    19    27    29   ar
    20    29    30   ar
    21    30    31   ar
    22    31    32   ar
    23    32    33   ar
    24    33    34   ar
    25    34    37    1
    26    37    38    1
    27    38    39    1
    28    39    40    1
    29    39    41    1
    30    39    42    1
    31    34    35   ar
    32    35    36   ar
    33     4     5    1
    34     5     6    1
    35     4     7    1
    36     7     8    1
    37    19    20   ar
    38    20    21   ar
    39    21    22    1
    40    22    13   am
    41    21    16   ar
    42     6     1    1
    43     8     1    1
    44    36    26   ar
    45    36    31   ar
    46     9    10    1
    47    22    23    1
@<TRIPOS>MOLECULE
*****
 42 47 0 0 0
SMALL
GASTEIGER

@<TRIPOS>ATOM
      1 C         139.5512  137.9104  162.3843 C.3     1  UNL1        0.0700
      2 C         139.2510  137.9507  163.8534 C.3     1  UNL1        0.0193
      3 C         140.3736  137.9741  164.8479 C.3     1  UNL1        0.0286
      4 C         141.7966  137.9572  164.3734 C.3     1  UNL1        0.0932
      5 C         142.0968  137.9169  162.9043 C.3     1  UNL1        0.0286
      6 C         140.9741  137.8934  161.9097 C.3     1  UNL1        0.0193
      7 O         141.2149  137.9433  163.7907 O.3     1  UNL1       -0.3572
      8 C         140.1998  137.9221  162.8914 C.3     1  UNL1        0.1562
      9 N         138.4286  137.8870  161.3897 N.3     1  UNL1       -0.2926
     10 H         138.8545  137.8000  160.4670 H       1  UNL1        0.1236
     11 C         137.4674  139.0362  161.3165 C.3     1  UNL1        0.1152
     12 O         141.9510  145.1183  159.4046 O.2     1  UNL1       -0.2707
     13 C         140.9349  144.4871  160.3097 C.2     1  UNL1        0.2718
     14 C         140.3973  145.2521  161.4826 C.3     1  UNL1        0.2898
     15 O         139.3813  144.6210  162.3877 O.3     1  UNL1       -0.4628
     16 C         138.9028  143.2248  162.1199 C.ar    1  UNL1        0.1708
     17 C         137.8867  142.5936  163.0250 C.ar    1  UNL1        0.0411
     18 C         137.4082  141.1975  162.7572 C.ar    1  UNL1        0.0193
     19 C         137.9459  140.4324  161.5843 C.ar    1  UNL1        0.0765
     20 N         138.9619  141.0636  160.6792 N.ar    1  UNL1       -0.2304
     21 C         139.4404  142.4598  160.9470 C.ar    1  UNL1        0.1682
     22 N         140.4565  143.0910  160.0419 N.am    1  UNL1       -0.2639
     23 H         140.8093  142.5889  159.2721 H       1  UNL1        0.1565
     24 C         142.9192  137.9806  165.3679 C.3     1  UNL1        0.0320
     25 C         143.6757  139.2521  165.6152 C.3     1  UNL1        0.0327
     26 C         143.2618  140.5175  164.9244 C.ar    1  UNL1        0.0261
     27 C         143.9180  140.9179  163.6363 C.ar    1  UNL1        0.1566
     28 F         144.9881  140.0528  163.0391 F       1  UNL1       -0.2028
     29 C         143.5042  142.1834  162.9454 C.ar    1  UNL1        0.1281
     30 N         142.4341  143.0485  163.5426 N.ar    1  UNL1       -0.2400
     31 C         141.7779  142.6481  164.8307 C.ar    1  UNL1        0.0990
     32 C         140.7079  143.5132  165.4278 C.ar    1  UNL1        0.0254
     33 C         140.0517  143.1128  166.7159 C.ar    1  UNL1        0.0593
     34 C         140.4655  141.8473  167.4068 C.ar    1  UNL1        0.2252
     35 N         141.5356  140.9822  166.8096 N.ar    1  UNL1       -0.2104
     36 C         142.1918  141.3826  165.5216 C.ar    1  UNL1        0.1002
     37 O         139.8093  141.4470  168.6948 O.3     1  UNL1       -0.4509
     38 C         139.9986  142.2843  169.9249 C.3     1  UNL1        0.3095
     39 C         141.3059  142.9795  170.1651 C.3     1  UNL1        0.4381
     40 F         142.6131  143.6747  170.4053 F       1  UNL1       -0.1663
     41 F         141.9478  141.6620  170.4846 F       1  UNL1       -0.1663
     42 F         140.6640  144.2970  169.8457 F       1  UNL1       -0.1663
@<TRIPOS>BOND
     1    12    13    2
     2    13    14    1
     3    14    15    1
     4    15    16    1
     5    16    17   ar
     6    17    18   ar
     7    18    19   ar
     8    19    11    1
     9    11     9    1
    10     9     1    1
    11     1     2    1
    12     2     3    1
    13     3     4    1
    14     4    24    1
    15    24    25    1
    16    25    26    1
    17    26    27   ar
    18    27    28    1
    19    27    29   ar
    20    29    30   ar
    21    30    31   ar
    22    31    32   ar
    23    32    33   ar
    24    33    34   ar
    25    34    37    1
    26    37    38    1
    27    38    39    1
    28    39    40    1
    29    39    41    1
    30    39    42    1
    31    34    35   ar
    32    35    36   ar
    33     4     5    1
    34     5     6    1
    35     4     7    1
    36     7     8    1
    37    19    20   ar
    38    20    21   ar
    39    21    22    1
    40    22    13   am
    41    21    16   ar
    42     6     1    1
    43     8     1    1
    44    36    26   ar
    45    36    31   ar
    46     9    10    1
    47    22    23    1
@<TRIPOS>MOLECULE
*****
 42 47 0 0 0
SMALL
GASTEIGER

@<TRIPOS>ATOM
      1 C         138.0992  140.4361  161.2276 C.3     1  UNL1        0.0700
      2 C         138.6078  141.6789  160.5590 C.3     1  UNL1        0.0193
      3 C         138.5082  143.0016  161.2593 C.3     1  UNL1        0.0286
      4 C         137.9001  143.0816  162.6282 C.3     1  UNL1        0.0932
      5 C         137.3916  141.8389  163.2968 C.3     1  UNL1        0.0286
      6 C         137.4912  140.5161  162.5965 C.3     1  UNL1        0.0193
      7 O         137.9330  142.3343  162.2841 O.3     1  UNL1       -0.3572
      8 C         138.0230  141.1383  161.6509 C.3     1  UNL1        0.1562
      9 N         138.1988  139.1134  160.5273 N.3     1  UNL1       -0.2926
     10 H         137.2477  138.7562  160.4362 H       1  UNL1        0.1236
     11 C         139.0208  138.0092  161.1233 C.3     1  UNL1        0.1152
     12 O         143.7683  138.2108  167.3016 O.2     1  UNL1       -0.2707
     13 C         143.5278  138.4464  165.8398 C.2     1  UNL1        0.2718
     14 C         144.6294  138.9849  164.9758 C.3     1  UNL1        0.2898
     15 O         144.3889  139.2206  163.5141 O.3     1  UNL1       -0.4628
     16 C         143.0469  138.9177  162.9164 C.ar    1  UNL1        0.1708
     17 C         142.8065  139.1534  161.4546 C.ar    1  UNL1        0.0411
     18 C         141.4645  138.8505  160.8569 C.ar    1  UNL1        0.0193
     19 C         140.3628  138.3120  161.7210 C.ar    1  UNL1        0.0765
     20 N         140.6033  138.0764  163.1827 N.ar    1  UNL1       -0.2304
     21 C         141.9454  138.3793  163.7804 C.ar    1  UNL1        0.1682
     22 N         142.1858  138.1436  165.2421 N.am    1  UNL1       -0.2639
     23 H         141.4628  137.7902  165.8092 H       1  UNL1        0.1565
     24 C         137.8006  144.4044  163.3285 C.3     1  UNL1        0.0320
     25 C         138.8092  144.7771  164.3743 C.3     1  UNL1        0.0327
     26 C         140.2666  144.5111  164.1393 C.ar    1  UNL1        0.0261
     27 C         140.9790  145.1871  163.0055 C.ar    1  UNL1        0.1566
     28 F         140.2341  146.1290  162.1067 F       1  UNL1       -0.2028
     29 C         142.4364  144.9211  162.7704 C.ar    1  UNL1        0.1281
     30 N         143.1814  143.9792  163.6692 N.ar    1  UNL1       -0.2400
     31 C         142.4690  143.3033  164.8030 C.ar    1  UNL1        0.0990
     32 C         143.2140  142.3614  165.7018 C.ar    1  UNL1        0.0254
     33 C         142.5015  141.6854  166.8357 C.ar    1  UNL1        0.0593
     34 C         141.0441  141.9514  167.0707 C.ar    1  UNL1        0.2252
     35 N         140.2992  142.8933  166.1719 N.ar    1  UNL1       -0.2104
     36 C         141.0116  143.5692  165.0381 C.ar    1  UNL1        0.1002
     37 O         140.3318  141.2755  168.2045 O.3     1  UNL1       -0.4509
     38 C         140.9251  140.0538  168.8413 C.3     1  UNL1        0.3095
     39 C         141.6650  140.1697  170.1410 C.3     1  UNL1        0.4381
     40 F         142.4048  140.2855  171.4407 F       1  UNL1       -0.1663
     41 F         142.1440  138.7558  169.9944 F       1  UNL1       -0.1663
     42 F         141.1860  141.5835  170.2876 F       1  UNL1       -0.1663
@<TRIPOS>BOND
     1    12    13    2
     2    13    14    1
     3    14    15    1
     4    15    16    1
     5    16    17   ar
     6    17    18   ar
     7    18    19   ar
     8    19    11    1
     9    11     9    1
    10     9     1    1
    11     1     2    1
    12     2     3    1
    13     3     4    1
    14     4    24    1
    15    24    25    1
    16    25    26    1
    17    26    27   ar
    18    27    28    1
    19    27    29   ar
    20    29    30   ar
    21    30    31   ar
    22    31    32   ar
    23    32    33   ar
    24    33    34   ar
    25    34    37    1
    26    37    38    1
    27    38    39    1
    28    39    40    1
    29    39    41    1
    30    39    42    1
    31    34    35   ar
    32    35    36   ar
    33     4     5    1
    34     5     6    1
    35     4     7    1
    36     7     8    1
    37    19    20   ar
    38    20    21   ar
    39    21    22    1
    40    22    13   am
    41    21    16   ar
    42     6     1    1
    43     8     1    1
    44    36    26   ar
    45    36    31   ar
    46     9    10    1
    47    22    23    1
