@<TRIPOS>MOLECULE
*****
 28 31 0 0 0
SMALL
GASTEIGER

@<TRIPOS>ATOM
      1 O         143.6385  142.5546  166.8745 O.3     1  UNL1       -0.3768
      2 C         142.4647  142.1045  166.0561 C.3     1  UNL1        0.1456
      3 H         143.6795  143.5237  166.8752 H       1  UNL1        0.2112
      4 C         143.0745  142.7310  164.8371 C.ar    1  UNL1        0.0264
      5 C         143.0285  144.2193  164.6561 C.ar    1  UNL1        0.0015
      6 C         143.6383  144.8457  163.4372 C.ar    1  UNL1        0.0204
      7 C         144.2939  143.9838  162.3993 C.ar    1  UNL1        0.0989
      8 N         144.3399  142.4955  162.5803 N.ar    1  UNL1       -0.2426
      9 C         143.7302  141.8691  163.7992 C.ar    1  UNL1        0.0972
     10 C         141.8551  141.4781  167.2750 C.ar    1  UNL1        0.0264
     11 C         140.6381  142.0896  167.9035 C.ar    1  UNL1        0.0015
     12 C         140.0284  141.4631  169.1225 C.ar    1  UNL1        0.0204
     13 C         140.6357  140.2251  169.7129 C.ar    1  UNL1        0.0989
     14 N         141.8527  139.6136  169.0844 N.ar    1  UNL1       -0.2426
     15 C         142.4624  140.2401  167.8655 C.ar    1  UNL1        0.0972
     16 C         141.2910  141.6545  165.2377 C.3     1  UNL1        0.1130
     17 C         140.3802  142.6686  164.6117 C.ar    1  UNL1       -0.0049
     18 C         140.1468  142.6537  163.1301 C.ar    1  UNL1       -0.0029
     19 C         139.2359  143.6678  162.5040 C.ar    1  UNL1       -0.0003
     20 C         138.5585  144.6968  163.3596 C.ar    1  UNL1       -0.0000
     21 C         138.7918  144.7118  164.8413 C.ar    1  UNL1       -0.0003
     22 C         139.7027  143.6977  165.4674 C.ar    1  UNL1       -0.0029
     23 N         141.0281  140.1902  165.0454 N.3     1  UNL1       -0.2679
     24 C         139.6794  139.6211  165.3725 C.3     1  UNL1        0.0724
     25 C         139.4164  138.1569  165.1802 C.3     1  UNL1        0.0174
     26 C         140.5022  137.2618  164.6607 C.3     1  UNL1        0.0029
     27 C         141.8509  137.8309  164.3335 C.3     1  UNL1        0.0174
     28 C         142.1139  139.2952  164.5259 C.3     1  UNL1        0.0724
@<TRIPOS>BOND
     1     1     2    1
     2     2     4    1
     3     4     5   ar
     4     5     6   ar
     5     6     7   ar
     6     7     8   ar
     7     8     9   ar
     8     2    10    1
     9    10    11   ar
    10    11    12   ar
    11    12    13   ar
    12    13    14   ar
    13    14    15   ar
    14     2    16    1
    15    16    17    1
    16    17    18   ar
    17    18    19   ar
    18    19    20   ar
    19    20    21   ar
    20    21    22   ar
    21    16    23    1
    22    23    24    1
    23    24    25    1
    24    25    26    1
    25    26    27    1
    26    27    28    1
    27     9     4   ar
    28    15    10   ar
    29    22    17   ar
    30    28    23    1
    31     1     3    1
@<TRIPOS>MOLECULE
*****
 28 31 0 0 0
SMALL
GASTEIGER

@<TRIPOS>ATOM
      1 O         143.6448  142.5490  166.8828 O.3     1  UNL1       -0.3768
      2 C         142.4701  142.1065  166.0617 C.3     1  UNL1        0.1456
      3 H         144.1060  141.7708  167.2330 H       1  UNL1        0.2112
      4 C         141.8563  141.4789  167.2781 C.ar    1  UNL1        0.0264
      5 C         140.6424  142.0947  167.9082 C.ar    1  UNL1        0.0015
      6 C         140.0287  141.4671  169.1245 C.ar    1  UNL1        0.0204
      7 C         140.6290  140.2237  169.7107 C.ar    1  UNL1        0.0989
      8 N         141.8429  139.6080  169.0807 N.ar    1  UNL1       -0.2426
      9 C         142.4566  140.2356  167.8644 C.ar    1  UNL1        0.0972
     10 C         143.0839  142.7341  164.8454 C.ar    1  UNL1        0.0264
     11 C         143.0448  144.2232  164.6691 C.ar    1  UNL1        0.0015
     12 C         143.6587  144.8507  163.4528 C.ar    1  UNL1        0.0204
     13 C         144.3115  143.9892  162.4128 C.ar    1  UNL1        0.0989
     14 N         144.3505  142.5001  162.5891 N.ar    1  UNL1       -0.2426
     15 C         143.7367  141.8726  163.8054 C.ar    1  UNL1        0.0972
     16 C         141.2954  141.6641  165.2406 C.3     1  UNL1        0.1130
     17 C         140.3918  142.6841  164.6136 C.ar    1  UNL1       -0.0049
     18 C         140.1653  142.6749  163.1309 C.ar    1  UNL1       -0.0029
     19 C         139.2617  143.6949  162.5038 C.ar    1  UNL1       -0.0003
     20 C         138.5847  144.7241  163.3595 C.ar    1  UNL1       -0.0000
     21 C         138.8112  144.7333  164.8424 C.ar    1  UNL1       -0.0003
     22 C         139.7148  143.7133  165.4694 C.ar    1  UNL1       -0.0029
     23 N         141.0242  140.2016  165.0466 N.3     1  UNL1       -0.2679
     24 C         142.1062  139.3003  164.5300 C.3     1  UNL1        0.0724
     25 C         141.8350  137.8378  164.3359 C.3     1  UNL1        0.0174
     26 C         140.4818  137.2766  164.6584 C.3     1  UNL1        0.0029
     27 C         139.3998  138.1780  165.1750 C.3     1  UNL1        0.0174
     28 C         139.6710  139.6405  165.3691 C.3     1  UNL1        0.0724
@<TRIPOS>BOND
     1     1     2    1
     2     2     4    1
     3     4     5   ar
     4     5     6   ar
     5     6     7   ar
     6     7     8   ar
     7     8     9   ar
     8     2    10    1
     9    10    11   ar
    10    11    12   ar
    11    12    13   ar
    12    13    14   ar
    13    14    15   ar
    14     2    16    1
    15    16    17    1
    16    17    18   ar
    17    18    19   ar
    18    19    20   ar
    19    20    21   ar
    20    21    22   ar
    21    16    23    1
    22    23    24    1
    23    24    25    1
    24    25    26    1
    25    26    27    1
    26    27    28    1
    27     9     4   ar
    28    15    10   ar
    29    22    17   ar
    30    28    23    1
    31     1     3    1
@<TRIPOS>MOLECULE
*****
 28 31 0 0 0
SMALL
GASTEIGER

@<TRIPOS>ATOM
      1 O         143.3891  141.7173  167.3083 O.3     1  UNL1       -0.3768
      2 C         142.2989  141.4386  166.3166 C.3     1  UNL1        0.1456
      3 H         143.4998  140.9500  167.8913 H       1  UNL1        0.2112
      4 C         141.3085  141.3247  167.4374 C.ar    1  UNL1        0.0264
      5 C         141.0401  142.5045  168.3239 C.ar    1  UNL1        0.0015
      6 C         140.0497  142.3905  169.4447 C.ar    1  UNL1        0.0204
      7 C         139.3278  141.0967  169.6790 C.ar    1  UNL1        0.0989
      8 N         139.5963  139.9169  168.7925 N.ar    1  UNL1       -0.2426
      9 C         140.5866  140.0309  167.6717 C.ar    1  UNL1        0.0972
     10 C         143.2893  141.5525  165.1958 C.ar    1  UNL1        0.0264
     11 C         144.2085  140.4079  164.8879 C.ar    1  UNL1        0.0015
     12 C         145.1989  140.5219  163.7671 C.ar    1  UNL1        0.0204
     13 C         145.2701  141.7805  162.9542 C.ar    1  UNL1        0.0989
     14 N         144.3508  142.9251  163.2621 N.ar    1  UNL1       -0.2426
     15 C         143.3605  142.8112  164.3829 C.ar    1  UNL1        0.0972
     16 C         141.2087  141.1599  165.3248 C.3     1  UNL1        0.1130
     17 C         140.1112  142.1608  165.1157 C.ar    1  UNL1       -0.0049
     18 C         138.7153  141.6938  164.8266 C.ar    1  UNL1       -0.0029
     19 C         137.6179  142.6947  164.6174 C.ar    1  UNL1       -0.0003
     20 C         137.9162  144.1625  164.6973 C.ar    1  UNL1       -0.0000
     21 C         139.3121  144.6296  164.9864 C.ar    1  UNL1       -0.0003
     22 C         140.4096  143.6287  165.1956 C.ar    1  UNL1       -0.0029
     23 N         141.2159  139.8802  164.5422 N.3     1  UNL1       -0.2679
     24 C         141.2313  138.5627  165.2590 C.3     1  UNL1        0.0724
     25 C         141.2385  137.2831  164.4765 C.3     1  UNL1        0.0174
     26 C         141.2303  137.3209  162.9769 C.3     1  UNL1        0.0029
     27 C         141.2148  138.6384  162.2600 C.3     1  UNL1        0.0174
     28 C         141.2076  139.9181  163.0427 C.3     1  UNL1        0.0724
@<TRIPOS>BOND
     1     1     2    1
     2     2     4    1
     3     4     5   ar
     4     5     6   ar
     5     6     7   ar
     6     7     8   ar
     7     8     9   ar
     8     2    10    1
     9    10    11   ar
    10    11    12   ar
    11    12    13   ar
    12    13    14   ar
    13    14    15   ar
    14     2    16    1
    15    16    17    1
    16    17    18   ar
    17    18    19   ar
    18    19    20   ar
    19    20    21   ar
    20    21    22   ar
    21    16    23    1
    22    23    24    1
    23    24    25    1
    24    25    26    1
    25    26    27    1
    26    27    28    1
    27     9     4   ar
    28    15    10   ar
    29    22    17   ar
    30    28    23    1
    31     1     3    1
@<TRIPOS>MOLECULE
*****
 28 31 0 0 0
SMALL
GASTEIGER

@<TRIPOS>ATOM
      1 O         143.6380  142.5490  166.8598 O.3     1  UNL1       -0.3768
      2 C         142.4583  142.1060  166.0461 C.3     1  UNL1        0.1456
      3 H         144.0932  141.7715  167.2192 H       1  UNL1        0.2112
      4 C         141.8412  141.4992  167.2713 C.ar    1  UNL1        0.0264
      5 C         142.4225  140.2496  167.8634 C.ar    1  UNL1        0.0015
      6 C         141.8053  139.6428  169.0885 C.ar    1  UNL1        0.0204
      7 C         140.6070  140.2857  169.7215 C.ar    1  UNL1        0.0989
      8 N         140.0257  141.5352  169.1294 N.ar    1  UNL1       -0.2426
      9 C         140.6428  142.1420  167.9043 C.ar    1  UNL1        0.0972
     10 C         143.0754  142.7128  164.8210 C.ar    1  UNL1        0.0264
     11 C         143.0381  144.1988  164.6200 C.ar    1  UNL1        0.0015
     12 C         143.6553  144.8057  163.3948 C.ar    1  UNL1        0.0204
     13 C         144.3097  143.9265  162.3708 C.ar    1  UNL1        0.0989
     14 N         144.3471  142.4405  162.5718 N.ar    1  UNL1       -0.2426
     15 C         143.7300  141.8337  163.7969 C.ar    1  UNL1        0.0972
     16 C         141.2787  141.6630  165.2325 C.3     1  UNL1        0.1130
     17 C         140.9876  140.2008  165.0680 C.ar    1  UNL1       -0.0049
     18 C         139.6239  139.6664  165.3918 C.ar    1  UNL1       -0.0029
     19 C         139.3328  138.2042  165.2273 C.ar    1  UNL1       -0.0003
     20 C         140.4054  137.2762  164.7391 C.ar    1  UNL1       -0.0000
     21 C         141.7691  137.8105  164.4152 C.ar    1  UNL1       -0.0003
     22 C         142.0602  139.2728  164.5797 C.ar    1  UNL1       -0.0029
     23 N         140.3900  142.6823  164.5832 N.3     1  UNL1       -0.2679
     24 C         140.1762  142.6540  163.0988 C.3     1  UNL1        0.0724
     25 C         139.2876  143.6732  162.4495 C.3     1  UNL1        0.0174
     26 C         138.6128  144.7208  163.2846 C.3     1  UNL1        0.0029
     27 C         138.8266  144.7490  164.7691 C.3     1  UNL1        0.0174
     28 C         139.7153  143.7298  165.4183 C.3     1  UNL1        0.0724
@<TRIPOS>BOND
     1     1     2    1
     2     2     4    1
     3     4     5   ar
     4     5     6   ar
     5     6     7   ar
     6     7     8   ar
     7     8     9   ar
     8     2    10    1
     9    10    11   ar
    10    11    12   ar
    11    12    13   ar
    12    13    14   ar
    13    14    15   ar
    14     2    16    1
    15    16    17    1
    16    17    18   ar
    17    18    19   ar
    18    19    20   ar
    19    20    21   ar
    20    21    22   ar
    21    16    23    1
    22    23    24    1
    23    24    25    1
    24    25    26    1
    25    26    27    1
    26    27    28    1
    27     9     4   ar
    28    15    10   ar
    29    22    17   ar
    30    28    23    1
    31     1     3    1
@<TRIPOS>MOLECULE
*****
 28 31 0 0 0
SMALL
GASTEIGER

@<TRIPOS>ATOM
      1 O         143.6325  142.5511  166.8629 O.3     1  UNL1       -0.3768
      2 C         142.4549  142.1058  166.0475 C.3     1  UNL1        0.1456
      3 H         143.6815  143.5198  166.8579 H       1  UNL1        0.2112
      4 C         143.0695  142.7199  164.8247 C.ar    1  UNL1        0.0264
      5 C         143.0303  144.2069  164.6317 C.ar    1  UNL1        0.0015
      6 C         143.6448  144.8210  163.4090 C.ar    1  UNL1        0.0204
      7 C         144.2987  143.9481  162.3792 C.ar    1  UNL1        0.0989
      8 N         144.3380  142.4611  162.5722 N.ar    1  UNL1       -0.2426
      9 C         143.7234  141.8470  163.7949 C.ar    1  UNL1        0.0972
     10 C         141.8404  141.4917  167.2702 C.ar    1  UNL1        0.0264
     11 C         142.4275  140.2429  167.8582 C.ar    1  UNL1        0.0015
     12 C         141.8129  139.6288  169.0810 C.ar    1  UNL1        0.0204
     13 C         140.6112  140.2635  169.7158 C.ar    1  UNL1        0.0989
     14 N         140.0241  141.5123  169.1278 N.ar    1  UNL1       -0.2426
     15 C         140.6386  142.1264  167.9051 C.ar    1  UNL1        0.0972
     16 C         141.2774  141.6605  165.2320 C.3     1  UNL1        0.1130
     17 C         140.9908  140.1976  165.0650 C.ar    1  UNL1       -0.0049
     18 C         142.0657  139.2742  164.5732 C.ar    1  UNL1       -0.0029
     19 C         141.7791  137.8113  164.4062 C.ar    1  UNL1       -0.0003
     20 C         140.4177  137.2719  164.7310 C.ar    1  UNL1       -0.0000
     21 C         139.3428  138.1953  165.2228 C.ar    1  UNL1       -0.0003
     22 C         139.6293  139.6582  165.3898 C.ar    1  UNL1       -0.0029
     23 N         140.3863  142.6781  164.5835 N.3     1  UNL1       -0.2679
     24 C         139.7094  143.7236  165.4194 C.3     1  UNL1        0.0724
     25 C         138.8183  144.7412  164.7710 C.3     1  UNL1        0.0174
     26 C         138.6041  144.7133  163.2865 C.3     1  UNL1        0.0029
     27 C         139.2810  143.6678  162.4506 C.3     1  UNL1        0.0174
     28 C         140.1721  142.6502  163.0992 C.3     1  UNL1        0.0724
@<TRIPOS>BOND
     1     1     2    1
     2     2     4    1
     3     4     5   ar
     4     5     6   ar
     5     6     7   ar
     6     7     8   ar
     7     8     9   ar
     8     2    10    1
     9    10    11   ar
    10    11    12   ar
    11    12    13   ar
    12    13    14   ar
    13    14    15   ar
    14     2    16    1
    15    16    17    1
    16    17    18   ar
    17    18    19   ar
    18    19    20   ar
    19    20    21   ar
    20    21    22   ar
    21    16    23    1
    22    23    24    1
    23    24    25    1
    24    25    26    1
    25    26    27    1
    26    27    28    1
    27     9     4   ar
    28    15    10   ar
    29    22    17   ar
    30    28    23    1
    31     1     3    1
@<TRIPOS>MOLECULE
*****
 28 31 0 0 0
SMALL
GASTEIGER

@<TRIPOS>ATOM
      1 O         140.4007  137.7586  165.1052 O.3     1  UNL1       -0.3768
      2 C         140.7292  139.1590  164.6797 C.3     1  UNL1        0.1456
      3 H         139.7470  137.7833  165.8215 H       1  UNL1        0.2112
      4 C         141.2733  139.4469  166.0476 C.ar    1  UNL1        0.0264
      5 C         140.4978  140.3121  166.9963 C.ar    1  UNL1        0.0015
      6 C         141.0419  140.6000  168.3642 C.ar    1  UNL1        0.0204
      7 C         142.3614  140.0228  168.7833 C.ar    1  UNL1        0.0989
      8 N         143.1369  139.1577  167.8346 N.ar    1  UNL1       -0.2426
      9 C         142.5928  138.8697  166.4667 C.ar    1  UNL1        0.0972
     10 C         140.1852  138.8709  163.3118 C.ar    1  UNL1        0.0264
     11 C         138.7053  138.7400  163.1056 C.ar    1  UNL1        0.0015
     12 C         138.1612  138.4520  161.7376 C.ar    1  UNL1        0.0204
     13 C         139.0972  138.2949  160.5761 C.ar    1  UNL1        0.0989
     14 N         140.5772  138.4258  160.7823 N.ar    1  UNL1       -0.2426
     15 C         141.1212  138.7138  162.1502 C.ar    1  UNL1        0.0972
     16 C         141.0578  140.5593  164.2541 C.3     1  UNL1        0.1130
     17 C         139.9583  141.5021  163.8640 C.ar    1  UNL1       -0.0049
     18 C         139.9724  142.1524  162.5124 C.ar    1  UNL1       -0.0029
     19 C         138.8730  143.0952  162.1222 C.ar    1  UNL1       -0.0003
     20 C         137.7593  143.3877  163.0836 C.ar    1  UNL1       -0.0000
     21 C         137.7452  142.7373  164.4352 C.ar    1  UNL1       -0.0003
     22 C         138.8447  141.7945  164.8254 C.ar    1  UNL1       -0.0029
     23 N         142.4859  141.0168  164.2188 N.3     1  UNL1       -0.2679
     24 C         142.8970  142.2502  164.9670 C.3     1  UNL1        0.0724
     25 C         144.3251  142.7078  164.9316 C.3     1  UNL1        0.0174
     26 C         145.3421  141.9320  164.1481 C.3     1  UNL1        0.0029
     27 C         144.9310  140.6986  163.3999 C.3     1  UNL1        0.0174
     28 C         143.5029  140.2411  163.4353 C.3     1  UNL1        0.0724
@<TRIPOS>BOND
     1     1     2    1
     2     2     4    1
     3     4     5   ar
     4     5     6   ar
     5     6     7   ar
     6     7     8   ar
     7     8     9   ar
     8     2    10    1
     9    10    11   ar
    10    11    12   ar
    11    12    13   ar
    12    13    14   ar
    13    14    15   ar
    14     2    16    1
    15    16    17    1
    16    17    18   ar
    17    18    19   ar
    18    19    20   ar
    19    20    21   ar
    20    21    22   ar
    21    16    23    1
    22    23    24    1
    23    24    25    1
    24    25    26    1
    25    26    27    1
    26    27    28    1
    27     9     4   ar
    28    15    10   ar
    29    22    17   ar
    30    28    23    1
    31     1     3    1
@<TRIPOS>MOLECULE
*****
 28 31 0 0 0
SMALL
GASTEIGER

@<TRIPOS>ATOM
      1 O         140.3090  137.8047  165.0681 O.3     1  UNL1       -0.3768
      2 C         140.6639  139.2019  164.6536 C.3     1  UNL1        0.1456
      3 H         140.7951  137.1709  164.5177 H       1  UNL1        0.2112
      4 C         140.0868  138.9448  163.2931 C.ar    1  UNL1        0.0264
      5 C         138.5999  138.8687  163.1113 C.ar    1  UNL1        0.0015
      6 C         138.0229  138.6116  161.7508 C.ar    1  UNL1        0.0204
      7 C         138.9329  138.4307  160.5721 C.ar    1  UNL1        0.0989
      8 N         140.4198  138.5068  160.7540 N.ar    1  UNL1       -0.2426
      9 C         140.9968  138.7639  162.1144 C.ar    1  UNL1        0.0972
     10 C         141.2409  139.4590  166.0141 C.ar    1  UNL1        0.0264
     11 C         140.4930  140.3096  166.9975 C.ar    1  UNL1        0.0015
     12 C         141.0701  140.5667  168.3580 C.ar    1  UNL1        0.0204
     13 C         142.3950  139.9731  168.7351 C.ar    1  UNL1        0.0989
     14 N         143.1429  139.1224  167.7517 N.ar    1  UNL1       -0.2426
     15 C         142.5659  138.8654  166.3912 C.ar    1  UNL1        0.0972
     16 C         141.0187  140.5992  164.2391 C.3     1  UNL1        0.1130
     17 C         139.9366  141.5681  163.8648 C.ar    1  UNL1       -0.0049
     18 C         139.9686  142.2487  162.5285 C.ar    1  UNL1       -0.0029
     19 C         138.8865  143.2177  162.1542 C.ar    1  UNL1       -0.0003
     20 C         137.7724  143.5061  163.1163 C.ar    1  UNL1       -0.0000
     21 C         137.7403  142.8255  164.4526 C.ar    1  UNL1       -0.0003
     22 C         138.8224  141.8565  164.8269 C.ar    1  UNL1       -0.0029
     23 N         142.4558  141.0275  164.1989 N.3     1  UNL1       -0.2679
     24 C         143.4522  140.2364  163.4044 C.3     1  UNL1        0.0724
     25 C         144.8892  140.6646  163.3641 C.3     1  UNL1        0.0174
     26 C         145.3298  141.8840  164.1185 C.3     1  UNL1        0.0029
     27 C         144.3334  142.6751  164.9131 C.3     1  UNL1        0.0174
     28 C         142.8964  142.2468  164.9533 C.3     1  UNL1        0.0724
@<TRIPOS>BOND
     1     1     2    1
     2     2     4    1
     3     4     5   ar
     4     5     6   ar
     5     6     7   ar
     6     7     8   ar
     7     8     9   ar
     8     2    10    1
     9    10    11   ar
    10    11    12   ar
    11    12    13   ar
    12    13    14   ar
    13    14    15   ar
    14     2    16    1
    15    16    17    1
    16    17    18   ar
    17    18    19   ar
    18    19    20   ar
    19    20    21   ar
    20    21    22   ar
    21    16    23    1
    22    23    24    1
    23    24    25    1
    24    25    26    1
    25    26    27    1
    26    27    28    1
    27     9     4   ar
    28    15    10   ar
    29    22    17   ar
    30    28    23    1
    31     1     3    1
@<TRIPOS>MOLECULE
*****
 28 31 0 0 0
SMALL
GASTEIGER

@<TRIPOS>ATOM
      1 O         139.9093  143.1034  166.5727 O.3     1  UNL1       -0.3768
      2 C         140.5784  142.0407  165.7524 C.3     1  UNL1        0.1456
      3 H         138.9607  142.9117  166.6385 H       1  UNL1        0.2112
      4 C         139.7507  142.4358  164.5654 C.ar    1  UNL1        0.0264
      5 C         138.3043  142.0445  164.4960 C.ar    1  UNL1        0.0015
      6 C         137.4766  142.4396  163.3091 C.ar    1  UNL1        0.0204
      7 C         138.0953  143.2259  162.1916 C.ar    1  UNL1        0.0989
      8 N         139.5417  143.6172  162.2610 N.ar    1  UNL1       -0.2426
      9 C         140.3694  143.2221  163.4479 C.ar    1  UNL1        0.0972
     10 C         141.4061  141.6457  166.9393 C.ar    1  UNL1        0.0264
     11 C         142.5067  142.5449  167.4189 C.ar    1  UNL1        0.0015
     12 C         143.3344  142.1498  168.6059 C.ar    1  UNL1        0.0204
     13 C         143.0615  140.8555  169.3133 C.ar    1  UNL1        0.0989
     14 N         141.9608  139.9563  168.8337 N.ar    1  UNL1       -0.2426
     15 C         141.1331  140.3514  167.6468 C.ar    1  UNL1        0.0972
     16 C         141.2475  140.9780  164.9321 C.3     1  UNL1        0.1130
     17 C         142.7138  141.0749  164.6311 C.ar    1  UNL1       -0.0049
     18 C         143.3067  142.3848  164.2037 C.ar    1  UNL1       -0.0029
     19 C         144.7730  142.4817  163.9027 C.ar    1  UNL1       -0.0003
     20 C         145.6464  141.2688  164.0290 C.ar    1  UNL1       -0.0000
     21 C         145.0535  139.9589  164.4564 C.ar    1  UNL1       -0.0003
     22 C         143.5872  139.8619  164.7575 C.ar    1  UNL1       -0.0029
     23 N         140.4503  139.8182  164.4129 N.3     1  UNL1       -0.2679
     24 C         140.3942  139.5468  162.9387 C.3     1  UNL1        0.0724
     25 C         139.5971  138.3872  162.4194 C.3     1  UNL1        0.0174
     26 C         138.8560  137.4988  163.3743 C.3     1  UNL1        0.0029
     27 C         138.9122  137.7702  164.8485 C.3     1  UNL1        0.0174
     28 C         139.7094  138.9299  165.3677 C.3     1  UNL1        0.0724
@<TRIPOS>BOND
     1     1     2    1
     2     2     4    1
     3     4     5   ar
     4     5     6   ar
     5     6     7   ar
     6     7     8   ar
     7     8     9   ar
     8     2    10    1
     9    10    11   ar
    10    11    12   ar
    11    12    13   ar
    12    13    14   ar
    13    14    15   ar
    14     2    16    1
    15    16    17    1
    16    17    18   ar
    17    18    19   ar
    18    19    20   ar
    19    20    21   ar
    20    21    22   ar
    21    16    23    1
    22    23    24    1
    23    24    25    1
    24    25    26    1
    25    26    27    1
    26    27    28    1
    27     9     4   ar
    28    15    10   ar
    29    22    17   ar
    30    28    23    1
    31     1     3    1
@<TRIPOS>MOLECULE
*****
 28 31 0 0 0
SMALL
GASTEIGER

@<TRIPOS>ATOM
      1 O         142.4152  139.4838  166.7130 O.3     1  UNL1       -0.3768
      2 C         141.7189  140.0451  165.5090 C.3     1  UNL1        0.1456
      3 H         142.7935  140.2086  167.2350 H       1  UNL1        0.2112
      4 C         143.0229  140.5942  165.0108 C.ar    1  UNL1        0.0264
      5 C         143.2927  142.0680  165.0831 C.ar    1  UNL1        0.0015
      6 C         144.5967  142.6170  164.5850 C.ar    1  UNL1        0.0204
      7 C         145.6308  141.6923  164.0146 C.ar    1  UNL1        0.0989
      8 N         145.3611  140.2185  163.9423 N.ar    1  UNL1       -0.2426
      9 C         144.0571  139.6695  164.4404 C.ar    1  UNL1        0.0972
     10 C         140.4149  139.4961  166.0071 C.ar    1  UNL1        0.0264
     11 C         139.6893  138.4502  165.2135 C.ar    1  UNL1        0.0015
     12 C         138.3853  137.9012  165.7117 C.ar    1  UNL1        0.0204
     13 C         137.8070  138.3979  167.0035 C.ar    1  UNL1        0.0989
     14 N         138.5325  139.4437  167.7971 N.ar    1  UNL1       -0.2426
     15 C         139.8365  139.9928  167.2989 C.ar    1  UNL1        0.0972
     16 C         141.0225  140.6065  164.3049 C.3     1  UNL1        0.1130
     17 C         139.9955  141.6875  164.4685 C.ar    1  UNL1       -0.0049
     18 C         138.6406  141.5357  163.8432 C.ar    1  UNL1       -0.0029
     19 C         137.6136  142.6166  164.0068 C.ar    1  UNL1       -0.0003
     20 C         137.9415  143.8495  164.7958 C.ar    1  UNL1       -0.0000
     21 C         139.2965  144.0014  165.4212 C.ar    1  UNL1       -0.0003
     22 C         140.3235  142.9204  165.2576 C.ar    1  UNL1       -0.0029
     23 N         141.3530  140.0869  162.9371 N.3     1  UNL1       -0.2679
     24 C         141.2777  138.6156  162.6553 C.3     1  UNL1        0.0724
     25 C         141.6082  138.0959  161.2876 C.3     1  UNL1        0.0174
     26 C         142.0142  139.0477  160.2016 C.3     1  UNL1        0.0029
     27 C         142.0896  140.5191  160.4833 C.3     1  UNL1        0.0174
     28 C         141.7590  141.0387  161.8511 C.3     1  UNL1        0.0724
@<TRIPOS>BOND
     1     1     2    1
     2     2     4    1
     3     4     5   ar
     4     5     6   ar
     5     6     7   ar
     6     7     8   ar
     7     8     9   ar
     8     2    10    1
     9    10    11   ar
    10    11    12   ar
    11    12    13   ar
    12    13    14   ar
    13    14    15   ar
    14     2    16    1
    15    16    17    1
    16    17    18   ar
    17    18    19   ar
    18    19    20   ar
    19    20    21   ar
    20    21    22   ar
    21    16    23    1
    22    23    24    1
    23    24    25    1
    24    25    26    1
    25    26    27    1
    26    27    28    1
    27     9     4   ar
    28    15    10   ar
    29    22    17   ar
    30    28    23    1
    31     1     3    1
