@<TRIPOS>MOLECULE
*****
 42 46 0 0 0
SMALL
GASTEIGER

@<TRIPOS>ATOM
      1 C         142.2890  138.1500  162.7285 C.3     1  UNL1        0.0118
      2 C         143.6242  138.2110  162.0478 C.3     1  UNL1        0.0179
      3 C         143.7001  138.3087  160.5529 C.3     1  UNL1        0.0724
      4 N         142.4408  138.3455  159.7388 N.3     1  UNL1       -0.2689
      5 C         141.1056  138.2845  160.4195 C.3     1  UNL1        0.0724
      6 C         141.0297  138.1868  161.9144 C.3     1  UNL1        0.0179
      7 C         142.2130  138.0523  164.2234 C.3     1  UNL1        0.0851
      8 O         139.9081  138.4060  165.3689 O.2     1  UNL1       -0.2751
      9 C         141.2614  138.9267  164.9848 C.2     1  UNL1        0.2229
     10 N         141.6630  140.3219  165.3621 N.am    1  UNL1       -0.2986
     11 H         142.5512  140.6637  165.1100 H       1  UNL1        0.1500
     12 C         140.7113  141.1963  166.1235 C.3     1  UNL1        0.1179
     13 C         139.7773  142.1089  165.3854 C.ar    1  UNL1       -0.0002
     14 C         140.0154  143.5899  165.3910 C.ar    1  UNL1       -0.0001
     15 C         139.0814  144.5025  164.6530 C.ar    1  UNL1        0.0294
     16 C         137.9093  143.9342  163.9093 C.ar    1  UNL1        0.1401
     17 F         136.9752  144.8467  163.1713 F       1  UNL1       -0.2042
     18 C         137.6711  142.4532  163.9037 C.ar    1  UNL1        0.0294
     19 C         138.6051  141.5405  164.6418 C.ar    1  UNL1       -0.0001
     20 C         140.6937  141.1581  167.6229 C.2     1  UNL1        0.0125
     21 C         139.6601  140.3414  168.3402 C.2     1  UNL1       -0.0175
     22 C         139.6424  140.3032  169.8396 C.3     1  UNL1        0.1129
     23 C         140.6584  141.0817  170.6217 C.2     1  UNL1        0.2500
     24 O         140.6407  141.0435  172.1211 O.2     1  UNL1       -0.2726
     25 N         141.6920  141.8984  169.9044 N.am    1  UNL1       -0.1779
     26 C         141.7096  141.9366  168.4050 C.2     1  UNL1        0.0859
     27 C         142.5168  138.4432  158.2439 C.3     1  UNL1        0.1007
     28 C         142.3447  137.2136  157.4022 C.ar    1  UNL1        0.0129
     29 C         141.2659  136.9851  156.3854 C.ar    1  UNL1        0.0176
     30 C         141.4757  135.6269  155.7843 C.ar    1  UNL1        0.0799
     31 N         142.6842  135.0160  156.4296 N.ar    1  UNL1       -0.3038
     32 C         143.2213  135.9967  157.4295 C.ar    1  UNL1        0.0772
     33 C         143.2553  133.6622  156.1279 C.ar    1  UNL1        0.0640
     34 C         142.8484  132.9378  154.8791 C.ar    1  UNL1        0.0175
     35 C         143.4196  131.5840  154.5775 C.ar    1  UNL1        0.0053
     36 C         144.3976  130.9546  155.5246 C.ar    1  UNL1        0.0715
     37 C         144.8045  131.6790  156.7735 C.ar    1  UNL1        0.0053
     38 C         144.2334  133.0328  157.0752 C.ar    1  UNL1        0.0175
     39 C         144.9687  129.6008  155.2230 C.3     1  UNL1        0.4186
     40 F         145.5398  128.2470  154.9212 F       1  UNL1       -0.1659
     41 F         144.9823  129.2801  156.6882 F       1  UNL1       -0.1659
     42 F         144.9551  129.9215  153.7577 F       1  UNL1       -0.1659
@<TRIPOS>BOND
     1     8     9    2
     2     9     7    1
     3     7     1    1
     4     1     2    1
     5     2     3    1
     6     3     4    1
     7     4    27    1
     8    27    28    1
     9    28    29   ar
    10    29    30   ar
    11    30    31   ar
    12    31    33    1
    13    33    34   ar
    14    34    35   ar
    15    35    36   ar
    16    36    39    1
    17    39    40    1
    18    39    41    1
    19    39    42    1
    20    36    37   ar
    21    37    38   ar
    22    31    32   ar
    23     4     5    1
    24     5     6    1
    25     9    10   am
    26    10    12    1
    27    12    13    1
    28    13    14   ar
    29    14    15   ar
    30    15    16   ar
    31    16    17    1
    32    16    18   ar
    33    18    19   ar
    34    12    20    1
    35    20    21    2
    36    21    22    1
    37    22    23    1
    38    23    24    2
    39    23    25    1
    40    25    26    2
    41     6     1    1
    42    19    13   ar
    43    26    20    1
    44    32    28   ar
    45    38    33   ar
    46    10    11    1
@<TRIPOS>MOLECULE
*****
 42 46 0 0 0
SMALL
GASTEIGER

@<TRIPOS>ATOM
      1 C         137.8660  141.5258  162.4861 C.3     1  UNL1        0.0118
      2 C         137.6686  140.0947  162.0827 C.3     1  UNL1        0.0179
      3 C         137.8262  139.6918  160.6464 C.3     1  UNL1        0.0724
      4 N         138.1812  140.7200  159.6136 N.3     1  UNL1       -0.2689
      5 C         138.3786  142.1512  160.0171 C.3     1  UNL1        0.0724
      6 C         138.2210  142.5541  161.4533 C.3     1  UNL1        0.0179
      7 C         137.7085  141.9288  163.9224 C.3     1  UNL1        0.0851
      8 O         139.3821  143.6218  164.9628 O.2     1  UNL1       -0.2751
      9 C         138.9208  142.2090  164.7601 C.2     1  UNL1        0.2229
     10 N         139.6718  141.0763  165.3951 N.am    1  UNL1       -0.2986
     11 H         139.3690  140.1490  165.2620 H       1  UNL1        0.1500
     12 C         140.8841  141.3565  166.2327 C.3     1  UNL1        0.1179
     13 C         142.2393  141.4203  165.5930 C.ar    1  UNL1       -0.0002
     14 C         142.9423  140.1556  165.1974 C.ar    1  UNL1       -0.0001
     15 C         144.2975  140.2194  164.5577 C.ar    1  UNL1        0.0294
     16 C         144.9498  141.5479  164.3135 C.ar    1  UNL1        0.1401
     17 F         146.3050  141.6118  163.6738 F       1  UNL1       -0.2042
     18 C         144.2468  142.8126  164.7090 C.ar    1  UNL1        0.0294
     19 C         142.8916  142.7488  165.3488 C.ar    1  UNL1       -0.0001
     20 C         140.7412  141.5728  167.7102 C.2     1  UNL1        0.0125
     21 C         140.6067  142.9639  168.2549 C.2     1  UNL1       -0.0175
     22 C         140.4638  143.1802  169.7324 C.3     1  UNL1        0.1129
     23 C         140.4554  142.0055  170.6650 C.2     1  UNL1        0.2500
     24 O         140.3125  142.2218  172.1424 O.2     1  UNL1       -0.2726
     25 N         140.5898  140.6144  170.1202 N.am    1  UNL1       -0.1779
     26 C         140.7327  140.3981  168.6428 C.2     1  UNL1        0.0859
     27 C         138.3388  140.3171  158.1773 C.3     1  UNL1        0.1007
     28 C         139.5895  139.6228  157.7261 C.ar    1  UNL1        0.0129
     29 C         140.9538  140.2388  157.6291 C.ar    1  UNL1        0.0176
     30 C         141.9030  139.1874  157.1356 C.ar    1  UNL1        0.0799
     31 N         141.1254  137.9216  156.9275 N.ar    1  UNL1       -0.3038
     32 C         139.6956  138.1908  157.2924 C.ar    1  UNL1        0.0772
     33 C         141.6802  136.6160  156.4401 C.ar    1  UNL1        0.0640
     34 C         140.9291  135.8173  155.4166 C.ar    1  UNL1        0.0175
     35 C         141.4839  134.5117  154.9292 C.ar    1  UNL1        0.0053
     36 C         142.7898  134.0048  155.4653 C.ar    1  UNL1        0.0715
     37 C         143.5410  134.8036  156.4889 C.ar    1  UNL1        0.0053
     38 C         142.9862  136.1091  156.9763 C.ar    1  UNL1        0.0175
     39 C         143.3446  132.6993  154.9779 C.3     1  UNL1        0.4186
     40 F         143.8994  131.3936  154.4906 F       1  UNL1       -0.1659
     41 F         142.8021  132.9801  153.6080 F       1  UNL1       -0.1659
     42 F         143.8871  132.4183  156.3479 F       1  UNL1       -0.1659
@<TRIPOS>BOND
     1     8     9    2
     2     9     7    1
     3     7     1    1
     4     1     2    1
     5     2     3    1
     6     3     4    1
     7     4    27    1
     8    27    28    1
     9    28    29   ar
    10    29    30   ar
    11    30    31   ar
    12    31    33    1
    13    33    34   ar
    14    34    35   ar
    15    35    36   ar
    16    36    39    1
    17    39    40    1
    18    39    41    1
    19    39    42    1
    20    36    37   ar
    21    37    38   ar
    22    31    32   ar
    23     4     5    1
    24     5     6    1
    25     9    10   am
    26    10    12    1
    27    12    13    1
    28    13    14   ar
    29    14    15   ar
    30    15    16   ar
    31    16    17    1
    32    16    18   ar
    33    18    19   ar
    34    12    20    1
    35    20    21    2
    36    21    22    1
    37    22    23    1
    38    23    24    2
    39    23    25    1
    40    25    26    2
    41     6     1    1
    42    19    13   ar
    43    26    20    1
    44    32    28   ar
    45    38    33   ar
    46    10    11    1
@<TRIPOS>MOLECULE
*****
 42 46 0 0 0
SMALL
GASTEIGER

@<TRIPOS>ATOM
      1 C         139.1361  144.2023  162.2847 C.3     1  UNL1        0.0118
      2 C         139.9794  145.2985  161.7041 C.3     1  UNL1        0.0179
      3 C         140.4079  145.2345  160.2681 C.3     1  UNL1        0.0724
      4 N         139.9932  144.0742  159.4126 N.3     1  UNL1       -0.2689
      5 C         139.1499  142.9780  159.9932 C.3     1  UNL1        0.0724
      6 C         138.7214  143.0420  161.4293 C.3     1  UNL1        0.0179
      7 C         138.7076  144.2663  163.7208 C.3     1  UNL1        0.0851
      8 O         137.7281  142.1302  164.8287 O.2     1  UNL1       -0.2751
      9 C         138.8771  143.0689  164.6081 C.2     1  UNL1        0.2229
     10 N         140.1956  142.8101  165.2750 N.am    1  UNL1       -0.2986
     11 H         140.9498  143.4263  165.1302 H       1  UNL1        0.1500
     12 C         140.3652  141.6127  166.1623 C.3     1  UNL1        0.1179
     13 C         140.5575  140.2532  165.5586 C.ar    1  UNL1       -0.0002
     14 C         141.9417  139.7130  165.3526 C.ar    1  UNL1       -0.0001
     15 C         142.1341  138.3534  164.7489 C.ar    1  UNL1        0.0294
     16 C         140.9423  137.5339  164.3512 C.ar    1  UNL1        0.1401
     17 F         141.1347  136.1743  163.7475 F       1  UNL1       -0.2042
     18 C         139.5582  138.0740  164.5572 C.ar    1  UNL1        0.0294
     19 C         139.3658  139.4337  165.1609 C.ar    1  UNL1       -0.0001
     20 C         140.3423  141.7749  167.6533 C.2     1  UNL1        0.0125
     21 C         140.5584  143.1278  168.2640 C.2     1  UNL1       -0.0175
     22 C         140.5355  143.2900  169.7550 C.3     1  UNL1        0.1129
     23 C         140.2966  142.0993  170.6354 C.2     1  UNL1        0.2500
     24 O         140.2738  142.2614  172.1264 O.2     1  UNL1       -0.2726
     25 N         140.0806  140.7464  170.0247 N.am    1  UNL1       -0.1779
     26 C         140.1034  140.5842  168.5337 C.2     1  UNL1        0.0859
     27 C         140.4218  144.0102  157.9765 C.3     1  UNL1        0.1007
     28 C         139.8049  144.9332  156.9679 C.ar    1  UNL1        0.0129
     29 C         138.8269  144.5444  155.8991 C.ar    1  UNL1        0.0176
     30 C         138.4752  145.7780  155.1216 C.ar    1  UNL1        0.0799
     31 N         139.2359  146.9293  155.7099 N.ar    1  UNL1       -0.3038
     32 C         140.0576  146.4072  156.8510 C.ar    1  UNL1        0.0772
     33 C         139.1838  148.3527  155.2397 C.ar    1  UNL1        0.0640
     34 C         138.5165  149.3976  156.0839 C.ar    1  UNL1        0.0175
     35 C         138.4644  150.8210  155.6137 C.ar    1  UNL1        0.0053
     36 C         139.0798  151.1996  154.2993 C.ar    1  UNL1        0.0715
     37 C         139.7472  150.1548  153.4549 C.ar    1  UNL1        0.0053
     38 C         139.7992  148.7313  153.9252 C.ar    1  UNL1        0.0175
     39 C         139.0278  152.6230  153.8291 C.3     1  UNL1        0.4186
     40 F         138.9758  154.0465  153.3588 F       1  UNL1       -0.1659
     41 F         138.0087  152.9345  154.8848 F       1  UNL1       -0.1659
     42 F         140.0468  152.3115  152.7733 F       1  UNL1       -0.1659
@<TRIPOS>BOND
     1     8     9    2
     2     9     7    1
     3     7     1    1
     4     1     2    1
     5     2     3    1
     6     3     4    1
     7     4    27    1
     8    27    28    1
     9    28    29   ar
    10    29    30   ar
    11    30    31   ar
    12    31    33    1
    13    33    34   ar
    14    34    35   ar
    15    35    36   ar
    16    36    39    1
    17    39    40    1
    18    39    41    1
    19    39    42    1
    20    36    37   ar
    21    37    38   ar
    22    31    32   ar
    23     4     5    1
    24     5     6    1
    25     9    10   am
    26    10    12    1
    27    12    13    1
    28    13    14   ar
    29    14    15   ar
    30    15    16   ar
    31    16    17    1
    32    16    18   ar
    33    18    19   ar
    34    12    20    1
    35    20    21    2
    36    21    22    1
    37    22    23    1
    38    23    24    2
    39    23    25    1
    40    25    26    2
    41     6     1    1
    42    19    13   ar
    43    26    20    1
    44    32    28   ar
    45    38    33   ar
    46    10    11    1
@<TRIPOS>MOLECULE
*****
 42 46 0 0 0
SMALL
GASTEIGER

@<TRIPOS>ATOM
      1 C         141.6981  137.9369  162.3863 C.3     1  UNL1        0.0118
      2 C         143.0099  137.8220  161.6679 C.3     1  UNL1        0.0179
      3 C         143.0611  137.9530  160.1746 C.3     1  UNL1        0.0724
      4 N         141.8005  138.1988  159.3996 N.3     1  UNL1       -0.2689
      5 C         140.4888  138.3137  160.1179 C.3     1  UNL1        0.0724
      6 C         140.4376  138.1827  161.6113 C.3     1  UNL1        0.0179
      7 C         141.6468  137.8059  163.8797 C.3     1  UNL1        0.0851
      8 O         143.5091  139.0370  165.2087 O.2     1  UNL1       -0.2751
      9 C         142.0843  138.9479  164.7482 C.2     1  UNL1        0.2229
     10 N         141.0970  140.0009  165.1563 N.am    1  UNL1       -0.2986
     11 H         140.1619  139.9424  164.8541 H       1  UNL1        0.1500
     12 C         141.5345  141.1429  166.0248 C.3     1  UNL1        0.1179
     13 C         142.2182  142.3303  165.4143 C.ar    1  UNL1       -0.0002
     14 C         141.4410  143.2842  164.5563 C.ar    1  UNL1       -0.0001
     15 C         142.1247  144.4715  163.9459 C.ar    1  UNL1        0.0294
     16 C         143.5856  144.7051  164.1934 C.ar    1  UNL1        0.1401
     17 F         144.2693  145.8924  163.5829 F       1  UNL1       -0.2042
     18 C         144.3628  143.7512  165.0513 C.ar    1  UNL1        0.0294
     19 C         143.6791  142.5638  165.6618 C.ar    1  UNL1       -0.0001
     20 C         141.2883  141.0976  167.5038 C.2     1  UNL1        0.0125
     21 C         140.8779  142.3418  168.2342 C.2     1  UNL1       -0.0175
     22 C         140.6317  142.2965  169.7132 C.3     1  UNL1        0.1129
     23 C         140.7958  141.0070  170.4617 C.2     1  UNL1        0.2500
     24 O         140.5496  140.9617  171.9406 O.2     1  UNL1       -0.2726
     25 N         141.2062  139.7628  169.7312 N.am    1  UNL1       -0.1779
     26 C         141.4524  139.8082  168.2523 C.2     1  UNL1        0.0859
     27 C         141.8518  138.3298  157.9061 C.3     1  UNL1        0.1007
     28 C         141.8212  137.1027  157.0441 C.ar    1  UNL1        0.0129
     29 C         140.8654  136.8395  155.9185 C.ar    1  UNL1        0.0176
     30 C         141.1945  135.4974  155.3351 C.ar    1  UNL1        0.0799
     31 N         142.3538  134.9310  156.1002 N.ar    1  UNL1       -0.3038
     32 C         142.7411  135.9231  157.1564 C.ar    1  UNL1        0.0772
     33 C         143.0104  133.6053  155.8525 C.ar    1  UNL1        0.0640
     34 C         142.4768  132.6910  154.7899 C.ar    1  UNL1        0.0175
     35 C         143.1334  131.3653  154.5423 C.ar    1  UNL1        0.0053
     36 C         144.3236  130.9539  155.3571 C.ar    1  UNL1        0.0715
     37 C         144.8572  131.8683  156.4198 C.ar    1  UNL1        0.0053
     38 C         144.2006  133.1940  156.6674 C.ar    1  UNL1        0.0175
     39 C         144.9802  129.6282  155.1095 C.3     1  UNL1        0.4186
     40 F         145.6368  128.3025  154.8619 F       1  UNL1       -0.1659
     41 F         145.0218  129.9235  153.6394 F       1  UNL1       -0.1659
     42 F         144.9386  129.3329  156.5796 F       1  UNL1       -0.1659
@<TRIPOS>BOND
     1     8     9    2
     2     9     7    1
     3     7     1    1
     4     1     2    1
     5     2     3    1
     6     3     4    1
     7     4    27    1
     8    27    28    1
     9    28    29   ar
    10    29    30   ar
    11    30    31   ar
    12    31    33    1
    13    33    34   ar
    14    34    35   ar
    15    35    36   ar
    16    36    39    1
    17    39    40    1
    18    39    41    1
    19    39    42    1
    20    36    37   ar
    21    37    38   ar
    22    31    32   ar
    23     4     5    1
    24     5     6    1
    25     9    10   am
    26    10    12    1
    27    12    13    1
    28    13    14   ar
    29    14    15   ar
    30    15    16   ar
    31    16    17    1
    32    16    18   ar
    33    18    19   ar
    34    12    20    1
    35    20    21    2
    36    21    22    1
    37    22    23    1
    38    23    24    2
    39    23    25    1
    40    25    26    2
    41     6     1    1
    42    19    13   ar
    43    26    20    1
    44    32    28   ar
    45    38    33   ar
    46    10    11    1
@<TRIPOS>MOLECULE
*****
 42 46 0 0 0
SMALL
GASTEIGER

@<TRIPOS>ATOM
      1 C         138.4358  139.8499  162.5647 C.3     1  UNL1        0.0118
      2 C         138.9053  138.5355  162.0151 C.3     1  UNL1        0.0179
      3 C         139.1652  138.3871  160.5453 C.3     1  UNL1        0.0724
      4 N         138.9556  139.5529  159.6251 N.3     1  UNL1       -0.2689
      5 C         138.4861  140.8672  160.1746 C.3     1  UNL1        0.0724
      6 C         138.2262  141.0157  161.6444 C.3     1  UNL1        0.0179
      7 C         138.1759  139.9984  164.0346 C.3     1  UNL1        0.0851
      8 O         138.2140  142.3821  165.0672 O.2     1  UNL1       -0.2751
      9 C         138.8844  141.0637  164.8176 C.2     1  UNL1        0.2229
     10 N         140.2633  140.8105  165.3511 N.am    1  UNL1       -0.2986
     11 H         140.7033  139.9452  165.1873 H       1  UNL1        0.1500
     12 C         140.9718  141.8758  166.1341 C.3     1  UNL1        0.1179
     13 C         141.8355  142.8775  165.4265 C.ar    1  UNL1       -0.0002
     14 C         143.3276  142.8132  165.5669 C.ar    1  UNL1       -0.0001
     15 C         144.1912  143.8149  164.8593 C.ar    1  UNL1        0.0294
     16 C         143.5629  144.8808  164.0114 C.ar    1  UNL1        0.1401
     17 F         144.4266  145.8825  163.3038 F       1  UNL1       -0.2042
     18 C         142.0709  144.9451  163.8710 C.ar    1  UNL1        0.0294
     19 C         141.2071  143.9434  164.5786 C.ar    1  UNL1       -0.0001
     20 C         140.8166  141.9394  167.6247 C.2     1  UNL1        0.0125
     21 C         140.4848  143.2425  168.2893 C.2     1  UNL1       -0.0175
     22 C         140.3296  143.3061  169.7799 C.3     1  UNL1        0.1129
     23 C         140.5063  142.0666  170.6059 C.2     1  UNL1        0.2500
     24 O         140.3511  142.1303  172.0965 O.2     1  UNL1       -0.2726
     25 N         140.8381  140.7635  169.9413 N.am    1  UNL1       -0.1779
     26 C         140.9933  140.6999  168.4507 C.2     1  UNL1        0.0859
     27 C         139.2155  139.4044  158.1552 C.3     1  UNL1        0.1007
     28 C         140.3898  138.6021  157.6785 C.ar    1  UNL1        0.0129
     29 C         141.8313  139.0054  157.7764 C.ar    1  UNL1        0.0176
     30 C         142.6612  137.9082  157.1787 C.ar    1  UNL1        0.0799
     31 N         141.7327  136.8267  156.7113 N.ar    1  UNL1       -0.3038
     32 C         140.3289  137.2556  157.0203 C.ar    1  UNL1        0.0772
     33 C         142.1370  135.5420  156.0510 C.ar    1  UNL1        0.0640
     34 C         141.2622  134.9336  154.9954 C.ar    1  UNL1        0.0175
     35 C         141.6665  133.6489  154.3351 C.ar    1  UNL1        0.0053
     36 C         142.9456  132.9726  154.7305 C.ar    1  UNL1        0.0715
     37 C         143.8205  133.5810  155.7861 C.ar    1  UNL1        0.0053
     38 C         143.4162  134.8657  156.4464 C.ar    1  UNL1        0.0175
     39 C         143.3499  131.6879  154.0702 C.3     1  UNL1        0.4186
     40 F         143.7543  130.4031  153.4099 F       1  UNL1       -0.1659
     41 F         142.8393  132.2022  152.7569 F       1  UNL1       -0.1659
     42 F         143.8606  131.1735  155.3835 F       1  UNL1       -0.1659
@<TRIPOS>BOND
     1     8     9    2
     2     9     7    1
     3     7     1    1
     4     1     2    1
     5     2     3    1
     6     3     4    1
     7     4    27    1
     8    27    28    1
     9    28    29   ar
    10    29    30   ar
    11    30    31   ar
    12    31    33    1
    13    33    34   ar
    14    34    35   ar
    15    35    36   ar
    16    36    39    1
    17    39    40    1
    18    39    41    1
    19    39    42    1
    20    36    37   ar
    21    37    38   ar
    22    31    32   ar
    23     4     5    1
    24     5     6    1
    25     9    10   am
    26    10    12    1
    27    12    13    1
    28    13    14   ar
    29    14    15   ar
    30    15    16   ar
    31    16    17    1
    32    16    18   ar
    33    18    19   ar
    34    12    20    1
    35    20    21    2
    36    21    22    1
    37    22    23    1
    38    23    24    2
    39    23    25    1
    40    25    26    2
    41     6     1    1
    42    19    13   ar
    43    26    20    1
    44    32    28   ar
    45    38    33   ar
    46    10    11    1
@<TRIPOS>MOLECULE
*****
 42 46 0 0 0
SMALL
GASTEIGER

@<TRIPOS>ATOM
      1 C         140.3813  138.2299  161.6745 C.3     1  UNL1        0.0118
      2 C         139.5631  138.4652  160.4396 C.3     1  UNL1        0.0179
      3 C         140.2283  138.5064  159.0958 C.3     1  UNL1        0.0724
      4 N         141.7117  138.3121  158.9870 N.3     1  UNL1       -0.2689
      5 C         142.5299  138.0768  160.2220 C.3     1  UNL1        0.0724
      6 C         141.8647  138.0356  161.5657 C.3     1  UNL1        0.0179
      7 C         139.7160  138.1887  163.0184 C.3     1  UNL1        0.0851
      8 O         138.0322  139.9679  163.8839 O.2     1  UNL1       -0.2751
      9 C         139.4394  139.4642  163.7577 C.2     1  UNL1        0.2229
     10 N         140.5701  140.2361  164.3708 N.am    1  UNL1       -0.2986
     11 H         141.4938  139.9055  164.2879 H       1  UNL1        0.1500
     12 C         140.2935  141.5116  165.1101 C.3     1  UNL1        0.1179
     13 C         140.1367  142.7976  164.3542 C.ar    1  UNL1       -0.0002
     14 C         141.3458  143.5031  163.8152 C.ar    1  UNL1       -0.0001
     15 C         141.1890  144.7892  163.0593 C.ar    1  UNL1        0.0294
     16 C         139.8231  145.3698  162.8424 C.ar    1  UNL1        0.1401
     17 F         139.6662  146.6559  162.0865 F       1  UNL1       -0.2042
     18 C         138.6140  144.6644  163.3813 C.ar    1  UNL1        0.0294
     19 C         138.7708  143.3783  164.1372 C.ar    1  UNL1       -0.0001
     20 C         140.1738  141.5010  166.6052 C.2     1  UNL1        0.0125
     21 C         139.6369  140.2883  167.3061 C.2     1  UNL1       -0.0175
     22 C         139.5172  140.2777  168.8012 C.3     1  UNL1        0.1129
     23 C         139.9342  141.4798  169.5956 C.2     1  UNL1        0.2500
     24 O         139.8145  141.4692  171.0908 O.2     1  UNL1       -0.2726
     25 N         140.4710  142.6925  168.8948 N.am    1  UNL1       -0.1779
     26 C         140.5908  142.7030  167.3996 C.2     1  UNL1        0.0859
     27 C         142.3770  138.3533  157.6432 C.3     1  UNL1        0.1007
     28 C         142.9244  137.0945  157.0385 C.ar    1  UNL1        0.0129
     29 C         143.6115  136.9810  155.7099 C.ar    1  UNL1        0.0176
     30 C         143.9927  135.5446  155.5065 C.ar    1  UNL1        0.0799
     31 N         143.5411  134.7703  156.7093 N.ar    1  UNL1       -0.3038
     32 C         142.8809  135.7282  157.6561 C.ar    1  UNL1        0.0772
     33 C         143.7186  133.2969  156.9270 C.ar    1  UNL1        0.0640
     34 C         142.7687  132.3251  156.2920 C.ar    1  UNL1        0.0175
     35 C         142.9462  130.8516  156.5097 C.ar    1  UNL1        0.0053
     36 C         144.0736  130.3500  157.3625 C.ar    1  UNL1        0.0715
     37 C         145.0236  131.3217  157.9975 C.ar    1  UNL1        0.0053
     38 C         144.8461  132.7952  157.7798 C.ar    1  UNL1        0.0175
     39 C         144.2511  128.8765  157.5802 C.3     1  UNL1        0.4186
     40 F         144.4286  127.4030  157.7980 F       1  UNL1       -0.1659
     41 F         145.0915  128.7946  156.3405 F       1  UNL1       -0.1659
     42 F         143.4107  128.9584  158.8200 F       1  UNL1       -0.1659
@<TRIPOS>BOND
     1     8     9    2
     2     9     7    1
     3     7     1    1
     4     1     2    1
     5     2     3    1
     6     3     4    1
     7     4    27    1
     8    27    28    1
     9    28    29   ar
    10    29    30   ar
    11    30    31   ar
    12    31    33    1
    13    33    34   ar
    14    34    35   ar
    15    35    36   ar
    16    36    39    1
    17    39    40    1
    18    39    41    1
    19    39    42    1
    20    36    37   ar
    21    37    38   ar
    22    31    32   ar
    23     4     5    1
    24     5     6    1
    25     9    10   am
    26    10    12    1
    27    12    13    1
    28    13    14   ar
    29    14    15   ar
    30    15    16   ar
    31    16    17    1
    32    16    18   ar
    33    18    19   ar
    34    12    20    1
    35    20    21    2
    36    21    22    1
    37    22    23    1
    38    23    24    2
    39    23    25    1
    40    25    26    2
    41     6     1    1
    42    19    13   ar
    43    26    20    1
    44    32    28   ar
    45    38    33   ar
    46    10    11    1
@<TRIPOS>MOLECULE
*****
 42 46 0 0 0
SMALL
GASTEIGER

@<TRIPOS>ATOM
      1 C         143.6587  139.2300  161.4797 C.3     1  UNL1        0.0118
      2 C         143.9434  140.3320  160.5027 C.3     1  UNL1        0.0179
      3 C         143.7311  140.1064  159.0351 C.3     1  UNL1        0.0724
      4 N         143.2342  138.7789  158.5444 N.3     1  UNL1       -0.2689
      5 C         142.9495  137.6769  159.5215 C.3     1  UNL1        0.0724
      6 C         143.1618  137.9025  160.9891 C.3     1  UNL1        0.0179
      7 C         143.8710  139.4556  162.9474 C.3     1  UNL1        0.0851
      8 O         144.3190  141.9177  163.6455 O.2     1  UNL1       -0.2751
      9 C         143.4044  140.7303  163.5856 C.2     1  UNL1        0.2229
     10 N         142.0230  140.8177  164.1639 N.am    1  UNL1       -0.2986
     11 H         141.4227  140.0384  164.1246 H       1  UNL1        0.1500
     12 C         141.5564  142.0924  164.8020 C.3     1  UNL1        0.1179
     13 C         141.6858  142.2801  166.2845 C.ar    1  UNL1       -0.0002
     14 C         140.4960  142.7045  167.0935 C.ar    1  UNL1       -0.0001
     15 C         140.6254  142.8922  168.5761 C.ar    1  UNL1        0.0294
     16 C         141.9446  142.6555  169.2497 C.ar    1  UNL1        0.1401
     17 F         142.0740  142.8431  170.7323 F       1  UNL1       -0.2042
     18 C         143.1343  142.2311  168.4408 C.ar    1  UNL1        0.0294
     19 C         143.0050  142.0434  166.9582 C.ar    1  UNL1       -0.0001
     20 C         140.9603  143.1794  163.9576 C.2     1  UNL1        0.0125
     21 C         141.7100  144.4614  163.7464 C.2     1  UNL1       -0.0175
     22 C         141.1139  145.5484  162.9020 C.3     1  UNL1        0.1129
     23 C         139.7681  145.3535  162.2688 C.2     1  UNL1        0.2500
     24 O         139.1721  146.4406  161.4244 O.2     1  UNL1       -0.2726
     25 N         139.0185  144.0716  162.4800 N.am    1  UNL1       -0.1779
     26 C         139.6146  142.9846  163.3244 C.2     1  UNL1        0.0859
     27 C         143.0219  138.5534  157.0767 C.3     1  UNL1        0.1007
     28 C         142.6591  137.1881  156.5725 C.ar    1  UNL1        0.0129
     29 C         141.3009  136.7516  156.1090 C.ar    1  UNL1        0.0176
     30 C         141.3931  135.3133  155.6932 C.ar    1  UNL1        0.0799
     31 N         142.8083  134.8609  155.8998 N.ar    1  UNL1       -0.3038
     32 C         143.5907  136.0196  156.4432 C.ar    1  UNL1        0.0772
     33 C         143.3466  133.4904  155.6132 C.ar    1  UNL1        0.0640
     34 C         144.3571  132.8738  156.5344 C.ar    1  UNL1        0.0175
     35 C         144.8954  131.5034  156.2478 C.ar    1  UNL1        0.0053
     36 C         144.4231  130.7495  155.0402 C.ar    1  UNL1        0.0715
     37 C         143.4126  131.3661  154.1190 C.ar    1  UNL1        0.0053
     38 C         142.8743  132.7366  154.4055 C.ar    1  UNL1        0.0175
     39 C         144.9614  129.3791  154.7536 C.3     1  UNL1        0.4186
     40 F         145.4997  128.0086  154.4672 F       1  UNL1       -0.1659
     41 F         144.9769  129.6919  153.2867 F       1  UNL1       -0.1659
     42 F         144.9459  129.0662  156.2206 F       1  UNL1       -0.1659
@<TRIPOS>BOND
     1     8     9    2
     2     9     7    1
     3     7     1    1
     4     1     2    1
     5     2     3    1
     6     3     4    1
     7     4    27    1
     8    27    28    1
     9    28    29   ar
    10    29    30   ar
    11    30    31   ar
    12    31    33    1
    13    33    34   ar
    14    34    35   ar
    15    35    36   ar
    16    36    39    1
    17    39    40    1
    18    39    41    1
    19    39    42    1
    20    36    37   ar
    21    37    38   ar
    22    31    32   ar
    23     4     5    1
    24     5     6    1
    25     9    10   am
    26    10    12    1
    27    12    13    1
    28    13    14   ar
    29    14    15   ar
    30    15    16   ar
    31    16    17    1
    32    16    18   ar
    33    18    19   ar
    34    12    20    1
    35    20    21    2
    36    21    22    1
    37    22    23    1
    38    23    24    2
    39    23    25    1
    40    25    26    2
    41     6     1    1
    42    19    13   ar
    43    26    20    1
    44    32    28   ar
    45    38    33   ar
    46    10    11    1
@<TRIPOS>MOLECULE
*****
 42 46 0 0 0
SMALL
GASTEIGER

@<TRIPOS>ATOM
      1 C         138.5831  139.4951  161.9028 C.3     1  UNL1        0.0118
      2 C         139.7042  138.7207  161.2755 C.3     1  UNL1        0.0179
      3 C         139.8555  138.6957  159.7834 C.3     1  UNL1        0.0724
      4 N         138.8857  139.4451  158.9186 N.3     1  UNL1       -0.2689
      5 C         137.7646  140.2195  159.5459 C.3     1  UNL1        0.0724
      6 C         137.6134  140.2444  161.0380 C.3     1  UNL1        0.0179
      7 C         138.4318  139.5201  163.3950 C.3     1  UNL1        0.0851
      8 O         139.6502  141.6518  164.2441 O.2     1  UNL1       -0.2751
      9 C         139.4885  140.1606  164.2454 C.2     1  UNL1        0.2229
     10 N         140.3835  139.3098  165.0970 N.am    1  UNL1       -0.2986
     11 H         140.2774  138.3311  165.0978 H       1  UNL1        0.1500
     12 C         141.4402  139.9503  165.9474 C.3     1  UNL1        0.1179
     13 C         142.7287  140.4037  165.3276 C.ar    1  UNL1       -0.0002
     14 C         143.1078  141.8546  165.3619 C.ar    1  UNL1       -0.0001
     15 C         144.3964  142.3079  164.7421 C.ar    1  UNL1        0.0294
     16 C         145.3058  141.3104  164.0881 C.ar    1  UNL1        0.1401
     17 F         146.5944  141.7637  163.4684 F       1  UNL1       -0.2042
     18 C         144.9268  139.8595  164.0538 C.ar    1  UNL1        0.0294
     19 C         143.6382  139.4061  164.6736 C.ar    1  UNL1       -0.0001
     20 C         141.2083  140.1375  167.4175 C.2     1  UNL1        0.0125
     21 C         142.2131  139.6254  168.4064 C.2     1  UNL1       -0.0175
     22 C         141.9813  139.8126  169.8765 C.3     1  UNL1        0.1129
     23 C         140.7446  140.5119  170.3577 C.2     1  UNL1        0.2500
     24 O         140.5127  140.6991  171.8278 O.2     1  UNL1       -0.2726
     25 N         139.7398  141.0240  169.3687 N.am    1  UNL1       -0.1779
     26 C         139.9716  140.8368  167.8986 C.2     1  UNL1        0.0859
     27 C         139.0370  139.4201  157.4264 C.3     1  UNL1        0.1007
     28 C         140.2033  138.7127  156.8026 C.ar    1  UNL1        0.0129
     29 C         141.2908  139.3519  155.9910 C.ar    1  UNL1        0.0176
     30 C         142.2466  138.2762  155.5676 C.ar    1  UNL1        0.0799
     31 N         141.7498  136.9720  156.1176 N.ar    1  UNL1       -0.3038
     32 C         140.4870  137.2418  156.8808 C.ar    1  UNL1        0.0772
     33 C         142.4014  135.6332  155.9362 C.ar    1  UNL1        0.0640
     34 C         142.1909  134.8625  154.6667 C.ar    1  UNL1        0.0175
     35 C         142.8425  133.5236  154.4853 C.ar    1  UNL1        0.0053
     36 C         143.7046  132.9555  155.5733 C.ar    1  UNL1        0.0715
     37 C         143.9152  133.7262  156.8428 C.ar    1  UNL1        0.0053
     38 C         143.2636  135.0650  157.0243 C.ar    1  UNL1        0.0175
     39 C         144.3562  131.6167  155.3919 C.3     1  UNL1        0.4186
     40 F         145.0078  130.2778  155.2104 F       1  UNL1       -0.1659
     41 F         145.0991  131.8035  156.6815 F       1  UNL1       -0.1659
     42 F         143.6133  131.4299  154.1022 F       1  UNL1       -0.1659
@<TRIPOS>BOND
     1     8     9    2
     2     9     7    1
     3     7     1    1
     4     1     2    1
     5     2     3    1
     6     3     4    1
     7     4    27    1
     8    27    28    1
     9    28    29   ar
    10    29    30   ar
    11    30    31   ar
    12    31    33    1
    13    33    34   ar
    14    34    35   ar
    15    35    36   ar
    16    36    39    1
    17    39    40    1
    18    39    41    1
    19    39    42    1
    20    36    37   ar
    21    37    38   ar
    22    31    32   ar
    23     4     5    1
    24     5     6    1
    25     9    10   am
    26    10    12    1
    27    12    13    1
    28    13    14   ar
    29    14    15   ar
    30    15    16   ar
    31    16    17    1
    32    16    18   ar
    33    18    19   ar
    34    12    20    1
    35    20    21    2
    36    21    22    1
    37    22    23    1
    38    23    24    2
    39    23    25    1
    40    25    26    2
    41     6     1    1
    42    19    13   ar
    43    26    20    1
    44    32    28   ar
    45    38    33   ar
    46    10    11    1
@<TRIPOS>MOLECULE
*****
 42 46 0 0 0
SMALL
GASTEIGER

@<TRIPOS>ATOM
      1 C         141.4110  144.4778  162.4017 C.3     1  UNL1        0.0118
      2 C         142.5292  143.5255  162.0974 C.3     1  UNL1        0.0179
      3 C         143.0076  143.3570  160.6858 C.3     1  UNL1        0.0724
      4 N         142.3678  144.1409  159.5785 N.3     1  UNL1       -0.2689
      5 C         141.2496  145.0932  159.8828 C.3     1  UNL1        0.0724
      6 C         140.7712  145.2617  161.2944 C.3     1  UNL1        0.0179
      7 C         140.9326  144.6463  163.8134 C.3     1  UNL1        0.0851
      8 O         139.2779  142.7873  164.5592 O.2     1  UNL1       -0.2751
      9 C         140.6254  143.4400  164.6502 C.2     1  UNL1        0.2229
     10 N         141.6658  142.8862  165.5782 N.am    1  UNL1       -0.2986
     11 H         142.5502  143.3145  165.6379 H       1  UNL1        0.1500
     12 C         141.3587  141.6798  166.4150 C.3     1  UNL1        0.1179
     13 C         141.3032  140.3216  165.7809 C.ar    1  UNL1       -0.0002
     14 C         142.5561  139.6895  165.2511 C.ar    1  UNL1       -0.0001
     15 C         142.5006  138.3312  164.6170 C.ar    1  UNL1        0.0294
     16 C         141.1923  137.6051  164.5127 C.ar    1  UNL1        0.1401
     17 F         141.1368  136.2469  163.8786 F       1  UNL1       -0.2042
     18 C         139.9394  138.2372  165.0425 C.ar    1  UNL1        0.0294
     19 C         139.9948  139.5955  165.6766 C.ar    1  UNL1       -0.0001
     20 C         141.1070  141.8317  167.8859 C.2     1  UNL1        0.0125
     21 C         140.4592  143.0784  168.4112 C.2     1  UNL1       -0.0175
     22 C         140.2075  143.2303  169.8821 C.3     1  UNL1        0.1129
     23 C         140.6038  142.1355  170.8278 C.2     1  UNL1        0.2500
     24 O         140.3521  142.2873  172.2987 O.2     1  UNL1       -0.2726
     25 N         141.2516  140.8888  170.3025 N.am    1  UNL1       -0.1779
     26 C         141.5033  140.7369  168.8316 C.2     1  UNL1        0.0859
     27 C         142.8463  143.9724  158.1668 C.3     1  UNL1        0.1007
     28 C         143.3145  142.6299  157.6888 C.ar    1  UNL1        0.0129
     29 C         144.7310  142.2516  157.3721 C.ar    1  UNL1        0.0176
     30 C         144.7403  140.8179  156.9311 C.ar    1  UNL1        0.0799
     31 N         143.3295  140.3102  156.9752 N.ar    1  UNL1       -0.3038
     32 C         142.4483  141.4301  157.4435 C.ar    1  UNL1        0.0772
     33 C         142.8790  138.9256  156.6144 C.ar    1  UNL1        0.0640
     34 C         143.7867  138.0208  155.8352 C.ar    1  UNL1        0.0175
     35 C         143.3362  136.6363  155.4744 C.ar    1  UNL1        0.0053
     36 C         141.9781  136.1566  155.8929 C.ar    1  UNL1        0.0715
     37 C         141.0703  137.0614  156.6721 C.ar    1  UNL1        0.0053
     38 C         141.5208  138.4459  157.0329 C.ar    1  UNL1        0.0175
     39 C         141.5276  134.7721  155.5321 C.3     1  UNL1        0.4186
     40 F         141.0771  133.3876  155.1712 F       1  UNL1       -0.1659
     41 F         142.4349  134.2032  156.5824 F       1  UNL1       -0.1659
     42 F         140.6203  135.3410  154.4817 F       1  UNL1       -0.1659
@<TRIPOS>BOND
     1     8     9    2
     2     9     7    1
     3     7     1    1
     4     1     2    1
     5     2     3    1
     6     3     4    1
     7     4    27    1
     8    27    28    1
     9    28    29   ar
    10    29    30   ar
    11    30    31   ar
    12    31    33    1
    13    33    34   ar
    14    34    35   ar
    15    35    36   ar
    16    36    39    1
    17    39    40    1
    18    39    41    1
    19    39    42    1
    20    36    37   ar
    21    37    38   ar
    22    31    32   ar
    23     4     5    1
    24     5     6    1
    25     9    10   am
    26    10    12    1
    27    12    13    1
    28    13    14   ar
    29    14    15   ar
    30    15    16   ar
    31    16    17    1
    32    16    18   ar
    33    18    19   ar
    34    12    20    1
    35    20    21    2
    36    21    22    1
    37    22    23    1
    38    23    24    2
    39    23    25    1
    40    25    26    2
    41     6     1    1
    42    19    13   ar
    43    26    20    1
    44    32    28   ar
    45    38    33   ar
    46    10    11    1
