@<TRIPOS>MOLECULE
*****
 18 19 0 0 0
SMALL
GASTEIGER

@<TRIPOS>ATOM
      1 C         139.0138  139.9201  166.8582 C.2     1  UNL1        0.1535
      2 N         138.9716  139.5238  168.3042 N.2     1  UNL1       -0.2471
      3 C         140.0703  140.2546  169.0175 C.3     1  UNL1        0.1696
      4 C         140.7916  141.1026  168.0122 C.3     1  UNL1        0.1936
      5 O         141.9497  141.9535  168.4418 O.3     1  UNL1       -0.3427
      6 C         142.3867  141.9564  169.8768 C.3     1  UNL1        0.1480
      7 C         141.6654  141.1084  170.8821 C.3     1  UNL1        0.0635
      8 C         140.5072  140.2575  170.4524 C.3     1  UNL1        0.1386
      9 O         139.7859  139.4094  171.4577 O.3     1  UNL1       -0.3823
     10 S         140.1386  140.8959  166.6777 S.3     1  UNL1       -0.0497
     11 H         140.1919  139.5271  172.3307 H       1  UNL1        0.2104
     12 C         143.5448  142.8073  170.3065 C.3     1  UNL1        0.1667
     13 O         143.3207  143.9687  171.2289 O.3     1  UNL1       -0.3795
     14 H         142.7841  144.6400  170.7790 H       1  UNL1        0.2105
     15 N         138.0929  139.4272  165.7816 N.pl3   1  UNL1       -0.3135
     16 H         137.1177  139.4718  165.9095 H       1  UNL1        0.1487
     17 C         139.5451  137.6578  164.5527 C.3     1  UNL1        0.0230
     18 C         138.6576  138.8664  164.5102 C.3     1  UNL1        0.0887
@<TRIPOS>BOND
     1    17    18    1
     2    18    15    1
     3    15     1    1
     4     1     2    2
     5     3     2    1
     6     3     4    1
     7     4     5    1
     8     5     6    1
     9     6    12    1
    10    12    13    1
    11     6     7    1
    12     7     8    1
    13     8     9    1
    14     4    10    1
    15    10     1    1
    16     8     3    1
    17    15    16    1
    18    13    14    1
    19     9    11    1
@<TRIPOS>MOLECULE
*****
 18 19 0 0 0
SMALL
GASTEIGER

@<TRIPOS>ATOM
      1 C         142.5844  139.0482  166.5980 C.2     1  UNL1        0.1535
      2 N         143.1484  138.9234  167.9823 N.2     1  UNL1       -0.2471
      3 C         142.4344  139.9046  168.8640 C.3     1  UNL1        0.1696
      4 C         141.4291  140.6359  168.0247 C.3     1  UNL1        0.1936
      5 O         140.5592  141.6892  168.6440 O.3     1  UNL1       -0.3427
      6 C         140.6945  142.0113  170.1028 C.3     1  UNL1        0.1480
      7 C         141.6999  141.2800  170.9422 C.3     1  UNL1        0.0635
      8 C         142.5698  140.2266  170.3228 C.3     1  UNL1        0.1386
      9 O         143.5752  139.4953  171.1621 O.3     1  UNL1       -0.3823
     10 S         141.5218  140.1066  166.6242 S.3     1  UNL1       -0.0497
     11 H         143.5333  139.8218  172.0746 H       1  UNL1        0.2104
     12 C         139.8246  143.0646  170.7222 C.3     1  UNL1        0.1667
     13 O         140.0068  144.5049  170.3449 O.3     1  UNL1       -0.3795
     14 H         140.8751  144.8116  170.6496 H       1  UNL1        0.2105
     15 N         143.0085  138.2541  165.3982 N.pl3   1  UNL1       -0.3135
     16 H         142.8763  137.2787  165.3817 H       1  UNL1        0.1487
     17 C         144.9657  139.6204  164.3722 C.3     1  UNL1        0.0230
     18 C         143.6340  138.9462  164.2236 C.3     1  UNL1        0.0887
@<TRIPOS>BOND
     1    17    18    1
     2    18    15    1
     3    15     1    1
     4     1     2    2
     5     3     2    1
     6     3     4    1
     7     4     5    1
     8     5     6    1
     9     6    12    1
    10    12    13    1
    11     6     7    1
    12     7     8    1
    13     8     9    1
    14     4    10    1
    15    10     1    1
    16     8     3    1
    17    15    16    1
    18    13    14    1
    19     9    11    1
@<TRIPOS>MOLECULE
*****
 18 19 0 0 0
SMALL
GASTEIGER

@<TRIPOS>ATOM
      1 C         139.8018  141.1496  166.5298 C.2     1  UNL1        0.1535
      2 N         138.6647  140.9032  165.5831 N.2     1  UNL1       -0.2471
      3 C         138.6398  142.0241  164.5867 C.3     1  UNL1        0.1696
      4 C         139.7617  142.9633  164.9175 C.3     1  UNL1        0.1936
      5 O         139.9843  144.1893  164.0824 O.3     1  UNL1       -0.3427
      6 C         139.0851  144.4761  162.9165 C.3     1  UNL1        0.1480
      7 C         137.9633  143.5370  162.5858 C.3     1  UNL1        0.0635
      8 C         137.7406  142.3109  163.4209 C.3     1  UNL1        0.1386
      9 O         136.6188  141.3717  163.0901 O.3     1  UNL1       -0.3823
     10 S         140.4798  142.4228  166.1184 S.3     1  UNL1       -0.0497
     11 H         136.1388  141.7018  162.3145 H       1  UNL1        0.2104
     12 C         139.3077  145.7021  162.0815 C.3     1  UNL1        0.1667
     13 O         140.3987  146.6666  162.4413 O.3     1  UNL1       -0.3795
     14 H         140.1930  147.0848  163.2920 H       1  UNL1        0.2105
     15 N         140.1925  140.2761  167.6850 N.pl3   1  UNL1       -0.3135
     16 H         140.5326  139.3668  167.5216 H       1  UNL1        0.1487
     17 C         138.8817  140.3986  169.9248 C.3     1  UNL1        0.0230
     18 C         140.0649  140.7881  169.0891 C.3     1  UNL1        0.0887
@<TRIPOS>BOND
     1    17    18    1
     2    18    15    1
     3    15     1    1
     4     1     2    2
     5     3     2    1
     6     3     4    1
     7     4     5    1
     8     5     6    1
     9     6    12    1
    10    12    13    1
    11     6     7    1
    12     7     8    1
    13     8     9    1
    14     4    10    1
    15    10     1    1
    16     8     3    1
    17    15    16    1
    18    13    14    1
    19     9    11    1
@<TRIPOS>MOLECULE
*****
 18 19 0 0 0
SMALL
GASTEIGER

@<TRIPOS>ATOM
      1 C         140.3520  140.6864  168.9015 C.2     1  UNL1        0.1535
      2 N         139.0977  139.8968  168.6710 N.2     1  UNL1       -0.2471
      3 C         139.1837  139.2777  167.3074 C.3     1  UNL1        0.1696
      4 C         140.4912  139.6847  166.6952 C.3     1  UNL1        0.1936
      5 O         140.8554  139.2099  165.3198 O.3     1  UNL1       -0.3427
      6 C         139.9120  138.3280  164.5565 C.3     1  UNL1        0.1480
      7 C         138.6045  137.9210  165.1687 C.3     1  UNL1        0.0635
      8 C         138.2404  138.3959  166.5442 C.3     1  UNL1        0.1386
      9 O         136.9329  137.9889  167.1564 O.3     1  UNL1       -0.3823
     10 S         141.2132  140.5553  167.6804 S.3     1  UNL1       -0.0497
     11 H         136.4472  137.4236  166.5355 H       1  UNL1        0.2104
     12 C         140.2762  137.8533  163.1810 C.3     1  UNL1        0.1667
     13 O         141.2238  136.7030  163.0111 O.3     1  UNL1       -0.3795
     14 H         142.1027  136.9579  163.3329 H       1  UNL1        0.2105
     15 N         140.6863  141.4697  170.1363 N.pl3   1  UNL1       -0.3135
     16 H         141.4084  141.1648  170.7321 H       1  UNL1        0.1487
     17 C         140.3866  144.0427  169.9377 C.3     1  UNL1        0.0230
     18 C         139.9207  142.7174  170.4633 C.3     1  UNL1        0.0887
@<TRIPOS>BOND
     1    17    18    1
     2    18    15    1
     3    15     1    1
     4     1     2    2
     5     3     2    1
     6     3     4    1
     7     4     5    1
     8     5     6    1
     9     6    12    1
    10    12    13    1
    11     6     7    1
    12     7     8    1
    13     8     9    1
    14     4    10    1
    15    10     1    1
    16     8     3    1
    17    15    16    1
    18    13    14    1
    19     9    11    1
@<TRIPOS>MOLECULE
*****
 18 19 0 0 0
SMALL
GASTEIGER

@<TRIPOS>ATOM
      1 C         142.5283  143.9063  161.8545 C.2     1  UNL1        0.1535
      2 N         143.9584  143.5187  162.0879 N.2     1  UNL1       -0.2471
      3 C         143.9704  142.2635  162.9090 C.3     1  UNL1        0.1696
      4 C         142.5477  141.8753  163.1831 C.3     1  UNL1        0.1936
      5 O         142.2475  140.6475  163.9907 O.3     1  UNL1       -0.3427
      6 C         143.3701  139.8077  164.5243 C.3     1  UNL1        0.1480
      7 C         144.7929  140.1959  164.2502 C.3     1  UNL1        0.0635
      8 C         145.0930  141.4238  163.4426 C.3     1  UNL1        0.1386
      9 O         146.5157  141.8120  163.1685 O.3     1  UNL1       -0.3823
     10 S         141.6564  142.8907  162.5314 S.3     1  UNL1       -0.0497
     11 H         147.1119  141.1679  163.5815 H       1  UNL1        0.2104
     12 C         143.0699  138.5799  165.3319 C.3     1  UNL1        0.1667
     13 O         144.0633  138.0844  166.3407 O.3     1  UNL1       -0.3795
     14 H         144.8660  137.7866  165.8847 H       1  UNL1        0.2105
     15 N         142.0535  145.1001  161.0801 N.pl3   1  UNL1       -0.3135
     16 H         142.7056  145.7393  160.7122 H       1  UNL1        0.1487
     17 C         139.8208  146.2256  161.7859 C.3     1  UNL1        0.0230
     18 C         140.5852  145.3198  160.8665 C.3     1  UNL1        0.0887
@<TRIPOS>BOND
     1    17    18    1
     2    18    15    1
     3    15     1    1
     4     1     2    2
     5     3     2    1
     6     3     4    1
     7     4     5    1
     8     5     6    1
     9     6    12    1
    10    12    13    1
    11     6     7    1
    12     7     8    1
    13     8     9    1
    14     4    10    1
    15    10     1    1
    16     8     3    1
    17    15    16    1
    18    13    14    1
    19     9    11    1
@<TRIPOS>MOLECULE
*****
 18 19 0 0 0
SMALL
GASTEIGER

@<TRIPOS>ATOM
      1 C         140.7315  140.2972  165.1042 C.2     1  UNL1        0.1535
      2 N         139.3200  140.3114  164.5967 N.2     1  UNL1       -0.2471
      3 C         139.0909  141.6202  163.9005 C.3     1  UNL1        0.1696
      4 C         140.3607  142.4148  163.9777 C.3     1  UNL1        0.1936
      5 O         140.4297  143.7803  163.3607 O.3     1  UNL1       -0.3427
      6 C         139.2287  144.3511  162.6664 C.3     1  UNL1        0.1480
      7 C         137.9589  143.5564  162.5892 C.3     1  UNL1        0.0635
      8 C         137.8900  142.1909  163.2063 C.3     1  UNL1        0.1386
      9 O         136.6201  141.3963  163.1291 O.3     1  UNL1       -0.3823
     10 S         141.3747  141.5972  164.7216 S.3     1  UNL1       -0.0497
     11 H         135.9479  141.9065  162.6508 H       1  UNL1        0.2104
     12 C         139.2977  145.7165  162.0493 C.3     1  UNL1        0.1667
     13 O         140.4161  146.6479  162.4122 O.3     1  UNL1       -0.3795
     14 H         140.3400  146.8958  163.3469 H       1  UNL1        0.2105
     15 N         141.3851  139.1793  165.8612 N.pl3   1  UNL1       -0.3135
     16 H         141.4013  139.1949  166.8455 H       1  UNL1        0.1487
     17 C         141.1522  137.0641  164.3708 C.3     1  UNL1        0.0230
     18 C         142.0139  138.0377  165.1188 C.3     1  UNL1        0.0887
@<TRIPOS>BOND
     1    17    18    1
     2    18    15    1
     3    15     1    1
     4     1     2    2
     5     3     2    1
     6     3     4    1
     7     4     5    1
     8     5     6    1
     9     6    12    1
    10    12    13    1
    11     6     7    1
    12     7     8    1
    13     8     9    1
    14     4    10    1
    15    10     1    1
    16     8     3    1
    17    15    16    1
    18    13    14    1
    19     9    11    1
@<TRIPOS>MOLECULE
*****
 18 19 0 0 0
SMALL
GASTEIGER

@<TRIPOS>ATOM
      1 C         139.9254  140.9631  166.4982 C.2     1  UNL1        0.1535
      2 N         138.7577  140.7563  165.5796 N.2     1  UNL1       -0.2471
      3 C         138.7067  141.9137  164.6268 C.3     1  UNL1        0.1696
      4 C         139.8429  142.8358  164.9564 C.3     1  UNL1        0.1936
      5 O         140.0449  144.0913  164.1609 O.3     1  UNL1       -0.3427
      6 C         139.1106  144.4247  163.0357 C.3     1  UNL1        0.1480
      7 C         137.9744  143.5025  162.7060 C.3     1  UNL1        0.0635
      8 C         137.7724  142.2470  163.5016 C.3     1  UNL1        0.1386
      9 O         136.6362  141.3248  163.1720 O.3     1  UNL1       -0.3823
     10 S         140.5961  142.2483  166.1130 S.3     1  UNL1       -0.0497
     11 H         136.1335  141.6853  162.4249 H       1  UNL1        0.2104
     12 C         139.3126  145.6801  162.2401 C.3     1  UNL1        0.1667
     13 O         140.6662  146.0040  161.6808 O.3     1  UNL1       -0.3795
     14 H         141.2851  146.1716  162.4087 H       1  UNL1        0.2105
     15 N         140.3481  140.0458  167.6071 N.pl3   1  UNL1       -0.3135
     16 H         139.6849  139.4652  168.0455 H       1  UNL1        0.1487
     17 C         142.1482  139.3864  169.3606 C.3     1  UNL1        0.0230
     18 C         141.7815  140.0130  168.0481 C.3     1  UNL1        0.0887
@<TRIPOS>BOND
     1    17    18    1
     2    18    15    1
     3    15     1    1
     4     1     2    2
     5     3     2    1
     6     3     4    1
     7     4     5    1
     8     5     6    1
     9     6    12    1
    10    12    13    1
    11     6     7    1
    12     7     8    1
    13     8     9    1
    14     4    10    1
    15    10     1    1
    16     8     3    1
    17    15    16    1
    18    13    14    1
    19     9    11    1
@<TRIPOS>MOLECULE
*****
 18 19 0 0 0
SMALL
GASTEIGER

@<TRIPOS>ATOM
      1 C         139.0125  138.7533  164.3239 C.2     1  UNL1        0.1535
      2 N         139.8542  139.9876  164.4576 N.2     1  UNL1       -0.2471
      3 C         139.9211  140.3478  165.9122 C.3     1  UNL1        0.1696
      4 C         139.1206  139.3361  166.6775 C.3     1  UNL1        0.1936
      5 O         139.0065  139.4429  168.1693 O.3     1  UNL1       -0.3427
      6 C         139.6928  140.5615  168.8959 C.3     1  UNL1        0.1480
      7 C         140.4933  141.5732  168.1306 C.3     1  UNL1        0.0635
      8 C         140.6074  141.4663  166.6387 C.3     1  UNL1        0.1386
      9 O         141.4078  142.4781  165.8734 O.3     1  UNL1       -0.3823
     10 S         138.5591  138.3506  165.6959 S.3     1  UNL1       -0.0497
     11 H         141.7818  143.1275  166.4893 H       1  UNL1        0.2104
     12 C         139.5787  140.6683  170.3877 C.3     1  UNL1        0.1667
     13 O         139.6211  139.4303  171.2336 O.3     1  UNL1       -0.3795
     14 H         138.8396  138.8860  171.0495 H       1  UNL1        0.2105
     15 N         138.6821  138.0458  163.0431 N.pl3   1  UNL1       -0.3135
     16 H         137.7964  137.6331  162.9230 H       1  UNL1        0.1487
     17 C         139.2976  138.2386  160.5264 C.3     1  UNL1        0.0230
     18 C         139.7012  137.9671  161.9454 C.3     1  UNL1        0.0887
@<TRIPOS>BOND
     1    17    18    1
     2    18    15    1
     3    15     1    1
     4     1     2    2
     5     3     2    1
     6     3     4    1
     7     4     5    1
     8     5     6    1
     9     6    12    1
    10    12    13    1
    11     6     7    1
    12     7     8    1
    13     8     9    1
    14     4    10    1
    15    10     1    1
    16     8     3    1
    17    15    16    1
    18    13    14    1
    19     9    11    1
@<TRIPOS>MOLECULE
*****
 18 19 0 0 0
SMALL
GASTEIGER

@<TRIPOS>ATOM
      1 C         143.4737  140.1689  164.6015 C.2     1  UNL1        0.1535
      2 N         142.7957  139.1394  163.7468 N.2     1  UNL1       -0.2471
      3 C         141.4664  138.8249  164.3665 C.3     1  UNL1        0.1696
      4 C         141.3228  139.6600  165.6042 C.3     1  UNL1        0.1936
      5 O         140.0809  139.5563  166.4391 O.3     1  UNL1       -0.3427
      6 C         138.9826  138.6174  166.0362 C.3     1  UNL1        0.1480
      7 C         139.1262  137.7823  164.7985 C.3     1  UNL1        0.0635
      8 C         140.3682  137.8861  163.9636 C.3     1  UNL1        0.1386
      9 O         140.5118  137.0509  162.7259 O.3     1  UNL1       -0.3823
     10 S         142.5634  140.4906  165.7495 S.3     1  UNL1       -0.0497
     11 H         139.7190  136.5039  162.6111 H       1  UNL1        0.2104
     12 C         137.7408  138.5136  166.8710 C.3     1  UNL1        0.1667
     13 O         137.2067  137.1660  167.2566 O.3     1  UNL1       -0.3795
     14 H         136.9077  136.6973  166.4617 H       1  UNL1        0.2105
     15 N         144.8248  140.7708  164.3521 N.pl3   1  UNL1       -0.3135
     16 H         145.6061  140.1875  164.2160 H       1  UNL1        0.1487
     17 C         144.5920  143.0239  163.0796 C.3     1  UNL1        0.0230
     18 C         144.9855  142.2616  164.3101 C.3     1  UNL1        0.0887
@<TRIPOS>BOND
     1    17    18    1
     2    18    15    1
     3    15     1    1
     4     1     2    2
     5     3     2    1
     6     3     4    1
     7     4     5    1
     8     5     6    1
     9     6    12    1
    10    12    13    1
    11     6     7    1
    12     7     8    1
    13     8     9    1
    14     4    10    1
    15    10     1    1
    16     8     3    1
    17    15    16    1
    18    13    14    1
    19     9    11    1
