@<TRIPOS>MOLECULE
*****
 23 26 0 0 0
SMALL
GASTEIGER

@<TRIPOS>ATOM
      1 C         140.8753  139.7626  165.8539 C.3     1  UNL1        0.0841
      2 C         140.2468  140.4839  164.6986 C.3     1  UNL1        0.0376
      3 C         140.7886  140.2957  163.3126 C.3     1  UNL1        0.0738
      4 N         141.9588  139.3861  163.0819 N.3     1  UNL1       -0.2737
      5 C         142.5873  138.6648  164.2372 C.3     1  UNL1        0.0738
      6 C         142.0455  138.8530  165.6231 C.3     1  UNL1        0.0376
      7 C         144.1976  142.4941  169.8903 C.3     1  UNL1        0.0307
      8 C         142.8433  141.8579  169.7849 C.2     1  UNL1       -0.0245
      9 C         141.9358  141.8236  170.9787 C.2     1  UNL1       -0.0242
     10 C         140.5815  141.1874  170.8733 C.3     1  UNL1        0.0702
     11 C         140.1346  140.5856  169.5740 C.2     1  UNL1        0.0706
     12 N         138.8652  139.8953  169.1716 N.am    1  UNL1       -0.1647
     13 C         138.9881  139.5029  167.7291 C.2     1  UNL1        0.3309
     14 O         137.9482  138.7881  166.9180 O.2     1  UNL1       -0.2501
     15 N         140.3335  139.9508  167.2399 N.am    1  UNL1       -0.2423
     16 C         141.0421  140.6200  168.3802 C.2     1  UNL1        0.0665
     17 C         142.3964  141.2561  168.4857 C.2     1  UNL1        0.0114
     18 C         142.5005  139.1979  161.6959 C.3     1  UNL1        0.0625
     19 C         143.1984  140.3307  161.0030 C.3     1  UNL1        0.0481
     20 C         143.7401  140.1424  159.6170 C.3     1  UNL1        0.1435
     21 O         143.5840  138.8214  158.9238 O.3     1  UNL1       -0.3537
     22 C         142.8862  137.6886  159.6165 C.3     1  UNL1        0.1435
     23 C         142.3445  137.8770  161.0026 C.3     1  UNL1        0.0481
@<TRIPOS>BOND
     1     7     8    1
     2     8     9    2
     3     9    10    1
     4    10    11    1
     5    11    12    2
     6    12    13    1
     7    13    14    2
     8    13    15   am
     9    15     1    1
    10     1     2    1
    11     2     3    1
    12     3     4    1
    13     4    18    1
    14    18    19    1
    15    19    20    1
    16    20    21    1
    17    21    22    1
    18    22    23    1
    19     4     5    1
    20     5     6    1
    21    15    16    1
    22    16    17    2
    23    17     8    1
    24    16    11    1
    25     6     1    1
    26    23    18    1
@<TRIPOS>MOLECULE
*****
 23 26 0 0 0
SMALL
GASTEIGER

@<TRIPOS>ATOM
      1 C         142.7421  142.5476  164.5039 C.3     1  UNL1        0.0841
      2 C         143.7664  142.5851  165.5990 C.3     1  UNL1        0.0376
      3 C         143.3344  142.5033  167.0331 C.3     1  UNL1        0.0738
      4 N         141.8781  142.3840  167.3721 N.3     1  UNL1       -0.2737
      5 C         140.8537  142.3465  166.2770 C.3     1  UNL1        0.0738
      6 C         141.2858  142.4283  164.8429 C.3     1  UNL1        0.0376
      7 C         142.4552  137.7129  161.1372 C.3     1  UNL1        0.0307
      8 C         142.8623  139.1515  161.0156 C.2     1  UNL1       -0.0245
      9 C         143.3733  139.6783  159.7075 C.2     1  UNL1       -0.0242
     10 C         143.7804  141.1169  159.5860 C.3     1  UNL1        0.0702
     11 C         143.6765  142.0286  160.7726 C.2     1  UNL1        0.0706
     12 N         144.0009  143.4819  160.9532 N.am    1  UNL1       -0.1647
     13 C         143.6903  143.8532  162.3729 C.2     1  UNL1        0.3309
     14 O         143.8654  145.2102  162.9878 O.2     1  UNL1       -0.2501
     15 N         143.1740  142.6294  163.0698 N.am    1  UNL1       -0.2423
     16 C         143.1655  141.5017  162.0807 C.2     1  UNL1        0.0665
     17 C         142.7584  140.0631  162.2022 C.2     1  UNL1        0.0114
     18 C         141.4462  142.3022  168.8062 C.3     1  UNL1        0.0625
     19 C         142.1627  141.3869  169.7544 C.3     1  UNL1        0.0481
     20 C         141.7307  141.3051  171.1884 C.3     1  UNL1        0.1435
     21 O         140.5822  142.1386  171.6745 O.3     1  UNL1       -0.3537
     22 C         139.8656  143.0539  170.7264 C.3     1  UNL1        0.1435
     23 C         140.2977  143.1356  169.2923 C.3     1  UNL1        0.0481
@<TRIPOS>BOND
     1     7     8    1
     2     8     9    2
     3     9    10    1
     4    10    11    1
     5    11    12    2
     6    12    13    1
     7    13    14    2
     8    13    15   am
     9    15     1    1
    10     1     2    1
    11     2     3    1
    12     3     4    1
    13     4    18    1
    14    18    19    1
    15    19    20    1
    16    20    21    1
    17    21    22    1
    18    22    23    1
    19     4     5    1
    20     5     6    1
    21    15    16    1
    22    16    17    2
    23    17     8    1
    24    16    11    1
    25     6     1    1
    26    23    18    1
@<TRIPOS>MOLECULE
*****
 23 26 0 0 0
SMALL
GASTEIGER

@<TRIPOS>ATOM
      1 C         140.5790  141.4660  165.2565 C.3     1  UNL1        0.0841
      2 C         140.5057  142.9571  165.1104 C.3     1  UNL1        0.0376
      3 C         140.8480  143.5998  163.7990 C.3     1  UNL1        0.0738
      4 N         141.2636  142.7515  162.6338 N.3     1  UNL1       -0.2737
      5 C         141.3369  141.2604  162.7800 C.3     1  UNL1        0.0738
      6 C         140.9946  140.6177  164.0914 C.3     1  UNL1        0.0376
      7 C         144.0737  142.4046  169.9146 C.3     1  UNL1        0.0307
      8 C         142.8205  141.6531  169.5759 C.2     1  UNL1       -0.0245
      9 C         142.1216  140.8466  170.6299 C.2     1  UNL1       -0.0242
     10 C         140.8684  140.0951  170.2912 C.3     1  UNL1        0.0702
     11 C         140.3142  140.1500  168.8985 C.2     1  UNL1        0.0706
     12 N         139.1058  139.5184  168.2734 N.am    1  UNL1       -0.1647
     13 C         139.0579  139.9344  166.8330 C.2     1  UNL1        0.3309
     14 O         138.0143  139.5323  165.8334 O.2     1  UNL1       -0.2501
     15 N         140.2367  140.8233  166.5679 N.am    1  UNL1       -0.2423
     16 C         141.0131  140.9565  167.8444 C.2     1  UNL1        0.0665
     17 C         142.2663  141.7080  168.1832 C.2     1  UNL1        0.0114
     18 C         141.6060  143.3942  161.3225 C.3     1  UNL1        0.0625
     19 C         142.6534  142.7841  160.4388 C.3     1  UNL1        0.0481
     20 C         142.9956  143.4269  159.1275 C.3     1  UNL1        0.1435
     21 O         142.2905  144.6799  158.6997 O.3     1  UNL1       -0.3537
     22 C         141.2431  145.2900  159.5833 C.3     1  UNL1        0.1435
     23 C         140.9008  144.6471  160.8947 C.3     1  UNL1        0.0481
@<TRIPOS>BOND
     1     7     8    1
     2     8     9    2
     3     9    10    1
     4    10    11    1
     5    11    12    2
     6    12    13    1
     7    13    14    2
     8    13    15   am
     9    15     1    1
    10     1     2    1
    11     2     3    1
    12     3     4    1
    13     4    18    1
    14    18    19    1
    15    19    20    1
    16    20    21    1
    17    21    22    1
    18    22    23    1
    19     4     5    1
    20     5     6    1
    21    15    16    1
    22    16    17    2
    23    17     8    1
    24    16    11    1
    25     6     1    1
    26    23    18    1
@<TRIPOS>MOLECULE
*****
 23 26 0 0 0
SMALL
GASTEIGER

@<TRIPOS>ATOM
      1 C         142.5615  141.1902  165.3646 C.3     1  UNL1        0.0841
      2 C         143.3480  142.4436  165.1186 C.3     1  UNL1        0.0376
      3 C         143.3173  143.0953  163.7680 C.3     1  UNL1        0.0738
      4 N         142.5001  142.4937  162.6633 N.3     1  UNL1       -0.2737
      5 C         141.7136  141.2403  162.9092 C.3     1  UNL1        0.0738
      6 C         141.7444  140.5886  164.2599 C.3     1  UNL1        0.0376
      7 C         140.3787  144.0994  170.0083 C.3     1  UNL1        0.0307
      8 C         141.0235  142.7798  169.7032 C.2     1  UNL1       -0.0245
      9 C         141.2544  141.7859  170.8026 C.2     1  UNL1       -0.0242
     10 C         141.8991  140.4664  170.4976 C.3     1  UNL1        0.0702
     11 C         142.3131  140.1407  169.0931 C.2     1  UNL1        0.0706
     12 N         142.9657  138.9303  168.4942 N.am    1  UNL1       -0.1647
     13 C         143.1383  139.1761  167.0245 C.2     1  UNL1        0.3309
     14 O         143.7495  138.2262  166.0375 O.2     1  UNL1       -0.2501
     15 N         142.5922  140.5384  166.7152 N.am    1  UNL1       -0.2423
     16 C         142.0822  141.1346  167.9937 C.2     1  UNL1        0.0665
     17 C         141.4374  142.4542  168.2988 C.2     1  UNL1        0.0114
     18 C         142.4695  143.1455  161.3127 C.3     1  UNL1        0.0625
     19 C         143.3706  142.6507  160.2203 C.3     1  UNL1        0.0481
     20 C         143.3399  143.3025  158.8698 C.3     1  UNL1        0.1435
     21 O         142.4080  144.4492  158.6114 O.3     1  UNL1       -0.3537
     22 C         141.5068  144.9441  159.7036 C.3     1  UNL1        0.1435
     23 C         141.5376  144.2922  161.0543 C.3     1  UNL1        0.0481
@<TRIPOS>BOND
     1     7     8    1
     2     8     9    2
     3     9    10    1
     4    10    11    1
     5    11    12    2
     6    12    13    1
     7    13    14    2
     8    13    15   am
     9    15     1    1
    10     1     2    1
    11     2     3    1
    12     3     4    1
    13     4    18    1
    14    18    19    1
    15    19    20    1
    16    20    21    1
    17    21    22    1
    18    22    23    1
    19     4     5    1
    20     5     6    1
    21    15    16    1
    22    16    17    2
    23    17     8    1
    24    16    11    1
    25     6     1    1
    26    23    18    1
@<TRIPOS>MOLECULE
*****
 23 26 0 0 0
SMALL
GASTEIGER

@<TRIPOS>ATOM
      1 C         139.6199  140.6796  164.3855 C.3     1  UNL1        0.0841
      2 C         139.3713  139.5989  165.3957 C.3     1  UNL1        0.0376
      3 C         139.5833  139.8733  166.8550 C.3     1  UNL1        0.0738
      4 N         140.0439  141.2283  167.3042 N.3     1  UNL1       -0.2737
      5 C         140.2926  142.3090  166.2941 C.3     1  UNL1        0.0738
      6 C         140.0806  142.0345  164.8348 C.3     1  UNL1        0.0376
      7 C         143.8194  137.8576  161.3535 C.3     1  UNL1        0.0307
      8 C         142.4637  138.4547  161.1176 C.2     1  UNL1       -0.0245
      9 C         141.8478  138.4004  159.7510 C.2     1  UNL1       -0.0242
     10 C         140.4921  138.9974  159.5151 C.3     1  UNL1        0.0702
     11 C         139.7523  139.6487  160.6458 C.2     1  UNL1        0.0706
     12 N         138.4114  140.3174  160.7149 N.am    1  UNL1       -0.1647
     13 C         138.1986  140.7849  162.1242 C.2     1  UNL1        0.3309
     14 O         136.9887  141.5057  162.6408 O.2     1  UNL1       -0.2501
     15 N         139.4080  140.4052  162.9262 N.am    1  UNL1       -0.2423
     16 C         140.3683  139.7030  162.0124 C.2     1  UNL1        0.0665
     17 C         141.7240  139.1060  162.2483 C.2     1  UNL1        0.0114
     18 C         140.2559  141.5026  168.7636 C.3     1  UNL1        0.0625
     19 C         140.4409  140.3635  169.7219 C.3     1  UNL1        0.0481
     20 C         140.6528  140.6379  171.1812 C.3     1  UNL1        0.1435
     21 O         140.6798  142.0514  171.6824 O.3     1  UNL1       -0.3537
     22 C         140.4948  143.1906  170.7243 C.3     1  UNL1        0.1435
     23 C         140.2828  142.9161  169.2648 C.3     1  UNL1        0.0481
@<TRIPOS>BOND
     1     7     8    1
     2     8     9    2
     3     9    10    1
     4    10    11    1
     5    11    12    2
     6    12    13    1
     7    13    14    2
     8    13    15   am
     9    15     1    1
    10     1     2    1
    11     2     3    1
    12     3     4    1
    13     4    18    1
    14    18    19    1
    15    19    20    1
    16    20    21    1
    17    21    22    1
    18    22    23    1
    19     4     5    1
    20     5     6    1
    21    15    16    1
    22    16    17    2
    23    17     8    1
    24    16    11    1
    25     6     1    1
    26    23    18    1
@<TRIPOS>MOLECULE
*****
 23 26 0 0 0
SMALL
GASTEIGER

@<TRIPOS>ATOM
      1 C         142.7495  140.6945  164.8020 C.3     1  UNL1        0.0841
      2 C         142.9512  139.6802  165.8886 C.3     1  UNL1        0.0376
      3 C         142.5030  139.9813  167.2880 C.3     1  UNL1        0.0738
      4 N         141.8532  141.2965  167.6009 N.3     1  UNL1       -0.2737
      5 C         141.6516  142.3108  166.5144 C.3     1  UNL1        0.0738
      6 C         142.0997  142.0097  165.1149 C.3     1  UNL1        0.0376
      7 C         138.9742  138.1292  161.0660 C.3     1  UNL1        0.0307
      8 C         140.3870  138.6330  161.0757 C.2     1  UNL1       -0.0245
      9 C         141.2301  138.5258  159.8397 C.2     1  UNL1       -0.0242
     10 C         142.6429  139.0296  159.8494 C.3     1  UNL1        0.0702
     11 C         143.2126  139.6408  161.0951 C.2     1  UNL1        0.0706
     12 N         144.5617  140.2199  161.4026 N.am    1  UNL1       -0.1647
     13 C         144.5524  140.6851  162.8286 C.2     1  UNL1        0.3309
     14 O         145.6971  141.3289  163.5534 O.2     1  UNL1       -0.2501
     15 N         143.1976  140.3935  163.4025 N.am    1  UNL1       -0.2423
     16 C         142.3696  139.7481  162.3311 C.2     1  UNL1        0.0665
     17 C         140.9567  139.2442  162.3214 C.2     1  UNL1        0.0114
     18 C         141.4051  141.5975  169.0004 C.3     1  UNL1        0.0625
     19 C         140.3349  142.6204  169.2417 C.3     1  UNL1        0.0481
     20 C         139.8868  142.9213  170.6412 C.3     1  UNL1        0.1435
     21 O         140.5089  142.1993  171.7995 O.3     1  UNL1       -0.3537
     22 C         141.5792  141.1764  171.5583 C.3     1  UNL1        0.1435
     23 C         142.0272  140.8755  170.1587 C.3     1  UNL1        0.0481
@<TRIPOS>BOND
     1     7     8    1
     2     8     9    2
     3     9    10    1
     4    10    11    1
     5    11    12    2
     6    12    13    1
     7    13    14    2
     8    13    15   am
     9    15     1    1
    10     1     2    1
    11     2     3    1
    12     3     4    1
    13     4    18    1
    14    18    19    1
    15    19    20    1
    16    20    21    1
    17    21    22    1
    18    22    23    1
    19     4     5    1
    20     5     6    1
    21    15    16    1
    22    16    17    2
    23    17     8    1
    24    16    11    1
    25     6     1    1
    26    23    18    1
@<TRIPOS>MOLECULE
*****
 23 26 0 0 0
SMALL
GASTEIGER

@<TRIPOS>ATOM
      1 C         142.7187  141.9407  164.6300 C.3     1  UNL1        0.0841
      2 C         143.6565  142.4307  165.6932 C.3     1  UNL1        0.0376
      3 C         143.2108  142.4728  167.1248 C.3     1  UNL1        0.0738
      4 N         141.8275  142.0248  167.4933 N.3     1  UNL1       -0.2737
      5 C         140.8897  141.5348  166.4301 C.3     1  UNL1        0.0738
      6 C         141.3354  141.4927  164.9984 C.3     1  UNL1        0.0376
      7 C         140.2228  145.6011  160.7359 C.3     1  UNL1        0.0307
      8 C         141.2693  144.5269  160.7664 C.2     1  UNL1       -0.0245
      9 C         141.9943  144.1502  159.5085 C.2     1  UNL1       -0.0242
     10 C         143.0408  143.0760  159.5390 C.3     1  UNL1        0.0702
     11 C         143.3622  142.3784  160.8274 C.2     1  UNL1        0.0706
     12 N         144.3373  141.2891  161.1629 N.am    1  UNL1       -0.1647
     13 C         144.2150  140.9926  162.6282 C.2     1  UNL1        0.3309
     14 O         145.0048  139.9695  163.3896 O.2     1  UNL1       -0.2501
     15 N         143.1642  141.8985  163.1983 N.am    1  UNL1       -0.2423
     16 C         142.6372  142.7551  162.0853 C.2     1  UNL1        0.0665
     17 C         141.5907  143.8293  162.0548 C.2     1  UNL1        0.0114
     18 C         141.3820  142.0670  168.9249 C.3     1  UNL1        0.0625
     19 C         142.0015  141.1425  169.9308 C.3     1  UNL1        0.0481
     20 C         141.5559  141.1847  171.3624 C.3     1  UNL1        0.1435
     21 O         140.4908  142.1513  171.7883 O.3     1  UNL1       -0.3537
     22 C         139.8714  143.0758  170.7826 C.3     1  UNL1        0.1435
     23 C         140.3170  143.0336  169.3508 C.3     1  UNL1        0.0481
@<TRIPOS>BOND
     1     7     8    1
     2     8     9    2
     3     9    10    1
     4    10    11    1
     5    11    12    2
     6    12    13    1
     7    13    14    2
     8    13    15   am
     9    15     1    1
    10     1     2    1
    11     2     3    1
    12     3     4    1
    13     4    18    1
    14    18    19    1
    15    19    20    1
    16    20    21    1
    17    21    22    1
    18    22    23    1
    19     4     5    1
    20     5     6    1
    21    15    16    1
    22    16    17    2
    23    17     8    1
    24    16    11    1
    25     6     1    1
    26    23    18    1
@<TRIPOS>MOLECULE
*****
 23 26 0 0 0
SMALL
GASTEIGER

@<TRIPOS>ATOM
      1 C         140.8019  139.9967  164.3860 C.3     1  UNL1        0.0841
      2 C         139.6931  140.2018  165.3751 C.3     1  UNL1        0.0376
      3 C         139.9522  140.9538  166.6469 C.3     1  UNL1        0.0738
      4 N         141.3201  141.5006  166.9295 N.3     1  UNL1       -0.2737
      5 C         142.4289  141.2954  165.9404 C.3     1  UNL1        0.0738
      6 C         142.1698  140.5435  164.6686 C.3     1  UNL1        0.0376
      7 C         138.9167  142.9459  159.6383 C.3     1  UNL1        0.0307
      8 C         139.2585  141.5395  160.0323 C.2     1  UNL1       -0.0245
      9 C         139.1371  140.4295  159.0308 C.2     1  UNL1       -0.0242
     10 C         139.4789  139.0231  159.4248 C.3     1  UNL1        0.0702
     11 C         139.9420  138.7267  160.8204 C.2     1  UNL1        0.0706
     12 N         140.3464  137.4488  161.4936 N.am    1  UNL1       -0.1647
     13 C         140.7178  137.7689  162.9112 C.2     1  UNL1        0.3309
     14 O         141.1825  136.7858  163.9444 O.2     1  UNL1       -0.2501
     15 N         140.5429  139.2448  163.1142 N.am    1  UNL1       -0.2423
     16 C         140.0634  139.8367  161.8219 C.2     1  UNL1        0.0665
     17 C         139.7216  141.2431  161.4279 C.2     1  UNL1        0.0114
     18 C         141.5791  142.2525  168.2013 C.3     1  UNL1        0.0625
     19 C         140.5183  143.1447  168.7745 C.3     1  UNL1        0.0481
     20 C         140.7774  143.8966  170.0463 C.3     1  UNL1        0.1435
     21 O         142.0973  143.7563  170.7450 O.3     1  UNL1       -0.3537
     22 C         143.1582  142.8641  170.1718 C.3     1  UNL1        0.1435
     23 C         142.8990  142.1122  168.9000 C.3     1  UNL1        0.0481
@<TRIPOS>BOND
     1     7     8    1
     2     8     9    2
     3     9    10    1
     4    10    11    1
     5    11    12    2
     6    12    13    1
     7    13    14    2
     8    13    15   am
     9    15     1    1
    10     1     2    1
    11     2     3    1
    12     3     4    1
    13     4    18    1
    14    18    19    1
    15    19    20    1
    16    20    21    1
    17    21    22    1
    18    22    23    1
    19     4     5    1
    20     5     6    1
    21    15    16    1
    22    16    17    2
    23    17     8    1
    24    16    11    1
    25     6     1    1
    26    23    18    1
@<TRIPOS>MOLECULE
*****
 23 26 0 0 0
SMALL
GASTEIGER

@<TRIPOS>ATOM
      1 C         139.2108  140.2898  163.2352 C.3     1  UNL1        0.0841
      2 C         138.2047  140.3375  164.3467 C.3     1  UNL1        0.0376
      3 C         138.6585  140.2465  165.7734 C.3     1  UNL1        0.0738
      4 N         140.1183  140.1078  166.0888 N.3     1  UNL1       -0.2737
      5 C         141.1245  140.0601  164.9773 C.3     1  UNL1        0.0738
      6 C         140.6707  140.1510  163.5506 C.3     1  UNL1        0.0376
      7 C         140.7157  145.0126  160.0380 C.3     1  UNL1        0.0307
      8 C         139.9453  143.7361  159.8737 C.2     1  UNL1       -0.0245
      9 C         139.3003  143.4133  158.5585 C.2     1  UNL1       -0.0242
     10 C         138.5299  142.1368  158.3942 C.3     1  UNL1        0.0702
     11 C         138.4045  141.1830  159.5450 C.2     1  UNL1        0.0706
     12 N         137.7134  139.8586  159.6803 N.am    1  UNL1       -0.1647
     13 C         137.9313  139.3628  161.0792 C.2     1  UNL1        0.3309
     14 O         137.4141  138.0751  161.6487 O.2     1  UNL1       -0.2501
     15 N         138.7571  140.3808  161.8084 N.am    1  UNL1       -0.2423
     16 C         139.0496  141.5057  160.8602 C.2     1  UNL1        0.0665
     17 C         139.8200  142.7822  161.0245 C.2     1  UNL1        0.0114
     18 C         140.5720  140.0168  167.5156 C.3     1  UNL1        0.0625
     19 C         139.5937  140.2442  168.6298 C.3     1  UNL1        0.0481
     20 C         140.0475  140.1532  170.0566 C.3     1  UNL1        0.1435
     21 O         141.4796  139.8348  170.3693 O.3     1  UNL1       -0.3537
     22 C         142.4579  139.6074  169.2553 C.3     1  UNL1        0.1435
     23 C         142.0041  139.6984  167.8284 C.3     1  UNL1        0.0481
@<TRIPOS>BOND
     1     7     8    1
     2     8     9    2
     3     9    10    1
     4    10    11    1
     5    11    12    2
     6    12    13    1
     7    13    14    2
     8    13    15   am
     9    15     1    1
    10     1     2    1
    11     2     3    1
    12     3     4    1
    13     4    18    1
    14    18    19    1
    15    19    20    1
    16    20    21    1
    17    21    22    1
    18    22    23    1
    19     4     5    1
    20     5     6    1
    21    15    16    1
    22    16    17    2
    23    17     8    1
    24    16    11    1
    25     6     1    1
    26    23    18    1
