@<TRIPOS>MOLECULE
*****
 31 35 0 0 0
SMALL
GASTEIGER

@<TRIPOS>ATOM
      1 C         138.5791  141.7309  163.2801 C.ar    1  UNL1        0.1840
      2 N         137.9161  143.0524  163.0271 N.ar    1  UNL1       -0.1274
      3 N         137.8876  143.2804  161.5448 N.ar    1  UNL1       -0.1316
      4 C         138.5330  142.0997  160.8817 C.ar    1  UNL1        0.1615
      5 N         138.9604  141.1421  161.9542 N.ar    1  UNL1       -0.2944
      6 C         139.6415  139.8577  161.5850 C.3     1  UNL1        0.1302
      7 C         139.8952  139.5309  160.1431 C.3     1  UNL1        0.1186
      8 N         139.4678  140.4885  159.0706 N.am    1  UNL1       -0.2688
      9 C         139.7215  140.1618  157.6288 C.2     1  UNL1        0.2493
     10 O         139.2941  141.1194  156.5563 O.2     1  UNL1       -0.2699
     11 C         138.7867  141.7730  159.4399 C.3     1  UNL1        0.1343
     12 C         138.3593  142.7306  158.3674 C.3     1  UNL1        0.0298
     13 C         137.6858  137.9186  166.6959 C.3     1  UNL1        0.0521
     14 C         138.3722  139.2014  166.3312 C.ar    1  UNL1        0.0595
     15 C         139.2983  139.8610  167.3096 C.ar    1  UNL1        0.0148
     16 C         139.9847  141.1439  166.9449 C.ar    1  UNL1        0.0029
     17 C         139.7449  141.7672  165.6017 C.ar    1  UNL1        0.0222
     18 C         138.8188  141.1076  164.6233 C.ar    1  UNL1        0.1167
     19 N         138.1324  139.8247  164.9880 N.ar    1  UNL1       -0.2466
     20 C         140.4026  138.8774  157.2595 C.ar    1  UNL1        0.0536
     21 C         139.6662  137.8392  156.4659 C.ar    1  UNL1        0.0045
     22 C         140.3474  136.5547  156.0966 C.ar    1  UNL1        0.0001
     23 C         141.7648  136.3085  156.5210 C.ar    1  UNL1        0.0000
     24 C         142.5012  137.3467  157.3147 C.ar    1  UNL1        0.0001
     25 C         141.8201  138.6311  157.6839 C.ar    1  UNL1        0.0045
     26 C         142.4460  135.0241  156.1517 C.ar    1  UNL1        0.0000
     27 C         143.4461  134.4100  157.0859 C.ar    1  UNL1        0.0000
     28 C         144.1272  133.1256  156.7167 C.ar    1  UNL1        0.0000
     29 C         143.8083  132.4553  155.4133 C.ar    1  UNL1        0.0000
     30 C         142.8082  133.0694  154.4791 C.ar    1  UNL1        0.0000
     31 C         142.1271  134.3538  154.8483 C.ar    1  UNL1        0.0000
@<TRIPOS>BOND
     1    13    14    1
     2    14    15   ar
     3    15    16   ar
     4    16    17   ar
     5    17    18   ar
     6    18     1    1
     7     1     2   ar
     8     2     3   ar
     9     3     4   ar
    10     4     5   ar
    11     5     6    1
    12     6     7    1
    13     7     8    1
    14     8     9   am
    15     9    10    2
    16     9    20    1
    17    20    21   ar
    18    21    22   ar
    19    22    23   ar
    20    23    26    1
    21    26    27   ar
    22    27    28   ar
    23    28    29   ar
    24    29    30   ar
    25    30    31   ar
    26    23    24   ar
    27    24    25   ar
    28     8    11    1
    29    11    12    1
    30    18    19   ar
    31    19    14   ar
    32     5     1   ar
    33    25    20   ar
    34    11     4    1
    35    31    26   ar
@<TRIPOS>MOLECULE
*****
 31 35 0 0 0
SMALL
GASTEIGER

@<TRIPOS>ATOM
      1 C         142.9749  136.9548  156.0525 C.ar    1  UNL1        0.1840
      2 N         143.0563  137.7162  154.7627 N.ar    1  UNL1       -0.1274
      3 N         143.1269  139.1781  155.0911 N.ar    1  UNL1       -0.1316
      4 C         143.0891  139.3203  156.5838 C.ar    1  UNL1        0.1615
      5 N         142.9952  137.9462  157.1781 N.ar    1  UNL1       -0.2944
      6 C         142.9403  137.7752  158.6672 C.3     1  UNL1        0.1302
      7 C         142.9793  138.9784  159.5623 C.3     1  UNL1        0.1186
      8 N         143.0733  140.3524  158.9680 N.am    1  UNL1       -0.2688
      9 C         143.1123  141.5555  159.8630 C.2     1  UNL1        0.2493
     10 O         143.2063  142.9296  159.2688 O.2     1  UNL1       -0.2699
     11 C         143.1282  140.5234  157.4788 C.3     1  UNL1        0.1343
     12 C         143.2221  141.8974  156.8845 C.3     1  UNL1        0.0298
     13 C         144.8930  132.4883  157.8885 C.3     1  UNL1        0.0521
     14 C         143.8474  133.2306  157.1103 C.ar    1  UNL1        0.0595
     15 C         142.7152  132.4819  156.4719 C.ar    1  UNL1        0.0148
     16 C         141.6695  133.2242  155.6937 C.ar    1  UNL1        0.0029
     17 C         141.7561  134.7152  155.5540 C.ar    1  UNL1        0.0222
     18 C         142.8883  135.4639  156.1923 C.ar    1  UNL1        0.1167
     19 N         143.9340  134.7216  156.9705 N.ar    1  UNL1       -0.2466
     20 C         143.0574  141.3846  161.3522 C.ar    1  UNL1        0.0536
     21 C         144.3226  141.1750  162.1302 C.ar    1  UNL1        0.0045
     22 C         144.2676  141.0040  163.6195 C.ar    1  UNL1        0.0001
     23 C         142.9475  141.0426  164.3306 C.ar    1  UNL1        0.0000
     24 C         141.6823  141.2522  163.5526 C.ar    1  UNL1        0.0001
     25 C         141.7372  141.4232  162.0634 C.ar    1  UNL1        0.0045
     26 C         142.8925  140.8717  165.8199 C.ar    1  UNL1        0.0000
     27 C         142.9895  142.0703  166.7165 C.ar    1  UNL1        0.0000
     28 C         142.9345  141.8994  168.2057 C.ar    1  UNL1        0.0000
     29 C         142.7826  140.5298  168.7982 C.ar    1  UNL1        0.0000
     30 C         142.6856  139.3312  167.9017 C.ar    1  UNL1        0.0000
     31 C         142.7406  139.5021  166.4125 C.ar    1  UNL1        0.0000
@<TRIPOS>BOND
     1    13    14    1
     2    14    15   ar
     3    15    16   ar
     4    16    17   ar
     5    17    18   ar
     6    18     1    1
     7     1     2   ar
     8     2     3   ar
     9     3     4   ar
    10     4     5   ar
    11     5     6    1
    12     6     7    1
    13     7     8    1
    14     8     9   am
    15     9    10    2
    16     9    20    1
    17    20    21   ar
    18    21    22   ar
    19    22    23   ar
    20    23    26    1
    21    26    27   ar
    22    27    28   ar
    23    28    29   ar
    24    29    30   ar
    25    30    31   ar
    26    23    24   ar
    27    24    25   ar
    28     8    11    1
    29    11    12    1
    30    18    19   ar
    31    19    14   ar
    32     5     1   ar
    33    25    20   ar
    34    11     4    1
    35    31    26   ar
@<TRIPOS>MOLECULE
*****
 31 35 0 0 0
SMALL
GASTEIGER

@<TRIPOS>ATOM
      1 C         138.5948  141.6740  163.2602 C.ar    1  UNL1        0.1840
      2 N         137.9716  143.0151  163.0091 N.ar    1  UNL1       -0.1274
      3 N         137.9913  143.2657  161.5303 N.ar    1  UNL1       -0.1316
      4 C         138.6267  142.0795  160.8675 C.ar    1  UNL1        0.1615
      5 N         138.9997  141.0958  161.9367 N.ar    1  UNL1       -0.2944
      6 C         139.6599  139.8006  161.5669 C.3     1  UNL1        0.1302
      7 C         139.9470  139.4891  160.1280 C.3     1  UNL1        0.1186
      8 N         139.5740  140.4729  159.0588 N.am    1  UNL1       -0.2688
      9 C         139.8611  140.1614  157.6199 C.2     1  UNL1        0.2493
     10 O         139.4881  141.1452  156.5507 O.2     1  UNL1       -0.2699
     11 C         138.9138  141.7681  159.4286 C.3     1  UNL1        0.1343
     12 C         138.5408  142.7518  158.3594 C.3     1  UNL1        0.0298
     13 C         140.7505  141.6484  167.9880 C.3     1  UNL1        0.0521
     14 C         139.8584  141.0122  166.9637 C.ar    1  UNL1        0.0595
     15 C         139.1521  139.7270  167.2788 C.ar    1  UNL1        0.0148
     16 C         138.2600  139.0908  166.2544 C.ar    1  UNL1        0.0029
     17 C         138.0743  139.7398  164.9149 C.ar    1  UNL1        0.0222
     18 C         138.7806  141.0250  164.5998 C.ar    1  UNL1        0.1167
     19 N         139.6727  141.6612  165.6241 N.ar    1  UNL1       -0.2466
     20 C         140.5212  138.8663  157.2501 C.ar    1  UNL1        0.0536
     21 C         139.7644  137.8358  156.4658 C.ar    1  UNL1        0.0045
     22 C         140.4246  136.5406  156.0960 C.ar    1  UNL1        0.0001
     23 C         141.8416  136.2759  156.5106 C.ar    1  UNL1        0.0000
     24 C         142.5985  137.3064  157.2950 C.ar    1  UNL1        0.0001
     25 C         141.9383  138.6016  157.6647 C.ar    1  UNL1        0.0045
     26 C         142.5018  134.9807  156.1409 C.ar    1  UNL1        0.0000
     27 C         142.1324  134.2888  154.8623 C.ar    1  UNL1        0.0000
     28 C         142.7926  132.9937  154.4925 C.ar    1  UNL1        0.0000
     29 C         143.8221  132.3904  155.4014 C.ar    1  UNL1        0.0000
     30 C         144.1914  133.0823  156.6800 C.ar    1  UNL1        0.0000
     31 C         143.5313  134.3774  157.0498 C.ar    1  UNL1        0.0000
@<TRIPOS>BOND
     1    13    14    1
     2    14    15   ar
     3    15    16   ar
     4    16    17   ar
     5    17    18   ar
     6    18     1    1
     7     1     2   ar
     8     2     3   ar
     9     3     4   ar
    10     4     5   ar
    11     5     6    1
    12     6     7    1
    13     7     8    1
    14     8     9   am
    15     9    10    2
    16     9    20    1
    17    20    21   ar
    18    21    22   ar
    19    22    23   ar
    20    23    26    1
    21    26    27   ar
    22    27    28   ar
    23    28    29   ar
    24    29    30   ar
    25    30    31   ar
    26    23    24   ar
    27    24    25   ar
    28     8    11    1
    29    11    12    1
    30    18    19   ar
    31    19    14   ar
    32     5     1   ar
    33    25    20   ar
    34    11     4    1
    35    31    26   ar
@<TRIPOS>MOLECULE
*****
 31 35 0 0 0
SMALL
GASTEIGER

@<TRIPOS>ATOM
      1 C         139.9648  139.9904  166.7287 C.ar    1  UNL1        0.1840
      2 N         138.6953  139.2373  166.9956 N.ar    1  UNL1       -0.1274
      3 N         138.2168  138.6602  165.6963 N.ar    1  UNL1       -0.1316
      4 C         139.1906  139.0566  164.6265 C.ar    1  UNL1        0.1615
      5 N         140.2709  139.8787  165.2645 N.ar    1  UNL1       -0.2944
      6 C         141.3938  140.4194  164.4298 C.3     1  UNL1        0.1302
      7 C         141.4365  140.1380  162.9570 C.3     1  UNL1        0.1186
      8 N         140.3562  139.3159  162.3190 N.am    1  UNL1       -0.2688
      9 C         140.3987  139.0345  160.8463 C.2     1  UNL1        0.2493
     10 O         139.3184  138.2124  160.2082 O.2     1  UNL1       -0.2699
     11 C         139.2332  138.7752  163.1537 C.3     1  UNL1        0.1343
     12 C         138.1529  137.9531  162.5157 C.3     1  UNL1        0.0298
     13 C         140.5907  144.0326  169.9331 C.3     1  UNL1        0.0521
     14 C         141.0973  142.7471  169.3494 C.ar    1  UNL1        0.0595
     15 C         142.4234  142.1971  169.7842 C.ar    1  UNL1        0.0148
     16 C         142.9299  140.9116  169.2004 C.ar    1  UNL1        0.0029
     17 C         142.1104  140.1760  168.1820 C.ar    1  UNL1        0.0222
     18 C         140.7843  140.7260  167.7472 C.ar    1  UNL1        0.1167
     19 N         140.2777  142.0115  168.3309 N.ar    1  UNL1       -0.2466
     20 C         141.5216  139.5752  160.0116 C.ar    1  UNL1        0.0536
     21 C         141.4935  141.0023  159.5504 C.ar    1  UNL1        0.0045
     22 C         142.6165  141.5429  158.7157 C.ar    1  UNL1        0.0001
     23 C         143.7675  140.6566  158.3422 C.ar    1  UNL1        0.0000
     24 C         143.7956  139.2295  158.8034 C.ar    1  UNL1        0.0001
     25 C         142.6727  138.6888  159.6381 C.ar    1  UNL1        0.0045
     26 C         144.8905  141.1972  157.5075 C.ar    1  UNL1        0.0000
     27 C         145.2564  140.5258  156.2171 C.ar    1  UNL1        0.0000
     28 C         146.3793  141.0664  155.3824 C.ar    1  UNL1        0.0000
     29 C         147.1363  142.2784  155.8381 C.ar    1  UNL1        0.0000
     30 C         146.7704  142.9499  157.1286 C.ar    1  UNL1        0.0000
     31 C         145.6475  142.4093  157.9633 C.ar    1  UNL1        0.0000
@<TRIPOS>BOND
     1    13    14    1
     2    14    15   ar
     3    15    16   ar
     4    16    17   ar
     5    17    18   ar
     6    18     1    1
     7     1     2   ar
     8     2     3   ar
     9     3     4   ar
    10     4     5   ar
    11     5     6    1
    12     6     7    1
    13     7     8    1
    14     8     9   am
    15     9    10    2
    16     9    20    1
    17    20    21   ar
    18    21    22   ar
    19    22    23   ar
    20    23    26    1
    21    26    27   ar
    22    27    28   ar
    23    28    29   ar
    24    29    30   ar
    25    30    31   ar
    26    23    24   ar
    27    24    25   ar
    28     8    11    1
    29    11    12    1
    30    18    19   ar
    31    19    14   ar
    32     5     1   ar
    33    25    20   ar
    34    11     4    1
    35    31    26   ar
@<TRIPOS>MOLECULE
*****
 31 35 0 0 0
SMALL
GASTEIGER

@<TRIPOS>ATOM
      1 C         138.0356  142.6948  155.6813 C.ar    1  UNL1        0.1840
      2 N         138.6439  143.7030  154.7520 N.ar    1  UNL1       -0.1274
      3 N         139.5967  144.5481  155.5443 N.ar    1  UNL1       -0.1316
      4 C         139.5773  144.0623  156.9634 C.ar    1  UNL1        0.1615
      5 N         138.6125  142.9169  157.0480 N.ar    1  UNL1       -0.2944
      6 C         138.3839  142.2241  158.3586 C.3     1  UNL1        0.1302
      7 C         139.1202  142.6767  159.5847 C.3     1  UNL1        0.1186
      8 N         140.0850  143.8221  159.5000 N.am    1  UNL1       -0.2688
      9 C         140.8212  144.2748  160.7260 C.2     1  UNL1        0.2493
     10 O         141.7860  145.4202  160.6414 O.2     1  UNL1       -0.2699
     11 C         140.3135  144.5150  158.1893 C.3     1  UNL1        0.1343
     12 C         141.2783  145.6604  158.1047 C.3     1  UNL1        0.0298
     13 C         136.9301  137.8527  154.1544 C.3     1  UNL1        0.0521
     14 C         136.4747  139.2273  154.5458 C.ar    1  UNL1        0.0595
     15 C         135.0111  139.5553  154.5651 C.ar    1  UNL1        0.0148
     16 C         134.5557  140.9298  154.9566 C.ar    1  UNL1        0.0029
     17 C         135.5639  141.9763  155.3286 C.ar    1  UNL1        0.0222
     18 C         137.0275  141.6483  155.3092 C.ar    1  UNL1        0.1167
     19 N         137.4829  140.2738  154.9178 N.ar    1  UNL1       -0.2466
     20 C         140.5926  143.5820  162.0366 C.ar    1  UNL1        0.0536
     21 C         139.6189  144.1507  163.0258 C.ar    1  UNL1        0.0045
     22 C         139.3904  143.4578  164.3365 C.ar    1  UNL1        0.0001
     23 C         140.1355  142.1963  164.6579 C.ar    1  UNL1        0.0000
     24 C         141.1092  141.6276  163.6687 C.ar    1  UNL1        0.0001
     25 C         141.3378  142.3204  162.3581 C.ar    1  UNL1        0.0045
     26 C         139.9069  141.5034  165.9686 C.ar    1  UNL1        0.0000
     27 C         139.1795  140.1922  166.0069 C.ar    1  UNL1        0.0000
     28 C         138.9509  139.4993  167.3174 C.ar    1  UNL1        0.0000
     29 C         139.4498  140.1177  168.5897 C.ar    1  UNL1        0.0000
     30 C         140.1772  141.4290  168.5514 C.ar    1  UNL1        0.0000
     31 C         140.4058  142.1218  167.2408 C.ar    1  UNL1        0.0000
@<TRIPOS>BOND
     1    13    14    1
     2    14    15   ar
     3    15    16   ar
     4    16    17   ar
     5    17    18   ar
     6    18     1    1
     7     1     2   ar
     8     2     3   ar
     9     3     4   ar
    10     4     5   ar
    11     5     6    1
    12     6     7    1
    13     7     8    1
    14     8     9   am
    15     9    10    2
    16     9    20    1
    17    20    21   ar
    18    21    22   ar
    19    22    23   ar
    20    23    26    1
    21    26    27   ar
    22    27    28   ar
    23    28    29   ar
    24    29    30   ar
    25    30    31   ar
    26    23    24   ar
    27    24    25   ar
    28     8    11    1
    29    11    12    1
    30    18    19   ar
    31    19    14   ar
    32     5     1   ar
    33    25    20   ar
    34    11     4    1
    35    31    26   ar
@<TRIPOS>MOLECULE
*****
 31 35 0 0 0
SMALL
GASTEIGER

@<TRIPOS>ATOM
      1 C         140.0724  144.5376  161.3592 C.ar    1  UNL1        0.1840
      2 N         139.8366  145.8811  160.7351 N.ar    1  UNL1       -0.1274
      3 N         139.9720  145.7319  159.2487 N.ar    1  UNL1       -0.1316
      4 C         140.2914  144.2962  158.9541 C.ar    1  UNL1        0.1615
      5 N         140.3535  143.5581  160.2585 N.ar    1  UNL1       -0.2944
      6 C         140.6579  142.0894  160.2755 C.3     1  UNL1        0.1302
      7 C         140.9003  141.3588  158.9880 C.3     1  UNL1        0.1186
      8 N         140.8383  142.0969  157.6836 N.am    1  UNL1       -0.2688
      9 C         141.0806  141.3663  156.3962 C.2     1  UNL1        0.2493
     10 O         141.0185  142.1044  155.0918 O.2     1  UNL1       -0.2699
     11 C         140.5338  143.5656  157.6667 C.3     1  UNL1        0.1343
     12 C         140.4717  144.3037  156.3623 C.3     1  UNL1        0.0298
     13 C         142.3035  142.5071  165.5899 C.3     1  UNL1        0.0521
     14 C         141.1494  143.2128  164.9418 C.ar    1  UNL1        0.0595
     15 C         139.9568  143.6088  165.7608 C.ar    1  UNL1        0.0148
     16 C         138.8027  144.3145  165.1127 C.ar    1  UNL1        0.0029
     17 C         138.8413  144.6241  163.6454 C.ar    1  UNL1        0.0222
     18 C         140.0339  144.2280  162.8264 C.ar    1  UNL1        0.1167
     19 N         141.1880  143.5224  163.4745 N.ar    1  UNL1       -0.2466
     20 C         141.3850  139.8977  156.4132 C.ar    1  UNL1        0.0536
     21 C         140.2656  138.8994  156.3950 C.ar    1  UNL1        0.0045
     22 C         140.5701  137.4307  156.4119 C.ar    1  UNL1        0.0001
     23 C         141.9940  136.9603  156.4471 C.ar    1  UNL1        0.0000
     24 C         143.1134  137.9585  156.4653 C.ar    1  UNL1        0.0001
     25 C         142.8090  139.4272  156.4483 C.ar    1  UNL1        0.0045
     26 C         142.2985  135.4916  156.4640 C.ar    1  UNL1        0.0000
     27 C         143.3500  134.9543  157.3890 C.ar    1  UNL1        0.0000
     28 C         143.6545  133.4856  157.4060 C.ar    1  UNL1        0.0000
     29 C         142.9075  132.5543  156.4980 C.ar    1  UNL1        0.0000
     30 C         141.8560  133.0916  155.5730 C.ar    1  UNL1        0.0000
     31 C         141.5514  134.5602  155.5560 C.ar    1  UNL1        0.0000
@<TRIPOS>BOND
     1    13    14    1
     2    14    15   ar
     3    15    16   ar
     4    16    17   ar
     5    17    18   ar
     6    18     1    1
     7     1     2   ar
     8     2     3   ar
     9     3     4   ar
    10     4     5   ar
    11     5     6    1
    12     6     7    1
    13     7     8    1
    14     8     9   am
    15     9    10    2
    16     9    20    1
    17    20    21   ar
    18    21    22   ar
    19    22    23   ar
    20    23    26    1
    21    26    27   ar
    22    27    28   ar
    23    28    29   ar
    24    29    30   ar
    25    30    31   ar
    26    23    24   ar
    27    24    25   ar
    28     8    11    1
    29    11    12    1
    30    18    19   ar
    31    19    14   ar
    32     5     1   ar
    33    25    20   ar
    34    11     4    1
    35    31    26   ar
@<TRIPOS>MOLECULE
*****
 31 35 0 0 0
SMALL
GASTEIGER

@<TRIPOS>ATOM
      1 C         143.8753  140.9114  162.2685 C.ar    1  UNL1        0.1840
      2 N         144.3836  142.3175  162.1482 N.ar    1  UNL1       -0.1274
      3 N         144.5283  142.6347  160.6893 N.ar    1  UNL1       -0.1316
      4 C         144.1095  141.4247  159.9079 C.ar    1  UNL1        0.1615
      5 N         143.7059  140.3596  160.8840 N.ar    1  UNL1       -0.2944
      6 C         143.2363  139.0249  160.3859 C.3     1  UNL1        0.1302
      7 C         143.1703  138.7553  158.9118 C.3     1  UNL1        0.1186
      8 N         143.5739  139.8205  157.9357 N.am    1  UNL1       -0.2688
      9 C         143.5079  139.5509  156.4617 C.2     1  UNL1        0.2493
     10 O         143.9115  140.6160  155.4857 O.2     1  UNL1       -0.2699
     11 C         144.0435  141.1552  158.4339 C.3     1  UNL1        0.1343
     12 C         144.4471  142.2203  157.4578 C.3     1  UNL1        0.0298
     13 C         140.5206  139.4580  165.9608 C.3     1  UNL1        0.0521
     14 C         141.9097  139.4579  165.3948 C.ar    1  UNL1        0.0595
     15 C         143.0105  138.7310  166.1088 C.ar    1  UNL1        0.0148
     16 C         144.3996  138.7308  165.5428 C.ar    1  UNL1        0.0029
     17 C         144.6878  139.4577  164.2626 C.ar    1  UNL1        0.0222
     18 C         143.5870  140.1846  163.5486 C.ar    1  UNL1        0.1167
     19 N         142.1979  140.1847  164.1147 N.ar    1  UNL1       -0.2466
     20 C         143.0383  138.2162  155.9636 C.ar    1  UNL1        0.0536
     21 C         141.5748  137.9693  155.7464 C.ar    1  UNL1        0.0045
     22 C         141.1052  136.6346  155.2484 C.ar    1  UNL1        0.0001
     23 C         142.0991  135.5468  154.9675 C.ar    1  UNL1        0.0000
     24 C         143.5626  135.7938  155.1847 C.ar    1  UNL1        0.0001
     25 C         144.0322  137.1284  155.6827 C.ar    1  UNL1        0.0045
     26 C         141.6296  134.2121  154.4694 C.ar    1  UNL1        0.0000
     27 C         141.5208  133.0540  155.4166 C.ar    1  UNL1        0.0000
     28 C         141.0513  131.7193  154.9186 C.ar    1  UNL1        0.0000
     29 C         140.6905  131.5427  153.4734 C.ar    1  UNL1        0.0000
     30 C         140.7992  132.7007  152.5263 C.ar    1  UNL1        0.0000
     31 C         141.2688  134.0354  153.0243 C.ar    1  UNL1        0.0000
@<TRIPOS>BOND
     1    13    14    1
     2    14    15   ar
     3    15    16   ar
     4    16    17   ar
     5    17    18   ar
     6    18     1    1
     7     1     2   ar
     8     2     3   ar
     9     3     4   ar
    10     4     5   ar
    11     5     6    1
    12     6     7    1
    13     7     8    1
    14     8     9   am
    15     9    10    2
    16     9    20    1
    17    20    21   ar
    18    21    22   ar
    19    22    23   ar
    20    23    26    1
    21    26    27   ar
    22    27    28   ar
    23    28    29   ar
    24    29    30   ar
    25    30    31   ar
    26    23    24   ar
    27    24    25   ar
    28     8    11    1
    29    11    12    1
    30    18    19   ar
    31    19    14   ar
    32     5     1   ar
    33    25    20   ar
    34    11     4    1
    35    31    26   ar
@<TRIPOS>MOLECULE
*****
 31 35 0 0 0
SMALL
GASTEIGER

@<TRIPOS>ATOM
      1 C         143.4821  139.9940  161.1033 C.ar    1  UNL1        0.1840
      2 N         143.8139  141.3821  160.6419 N.ar    1  UNL1       -0.1274
      3 N         143.8496  141.3759  159.1423 N.ar    1  UNL1       -0.1316
      4 C         143.5398  139.9840  158.6770 C.ar    1  UNL1        0.1615
      5 N         143.3127  139.1299  159.8890 N.ar    1  UNL1       -0.2944
      6 C         142.9809  137.6757  159.7303 C.3     1  UNL1        0.1302
      7 C         142.8762  137.0755  158.3595 C.3     1  UNL1        0.1186
      8 N         143.1034  137.9296  157.1475 N.am    1  UNL1       -0.2688
      9 C         142.9987  137.3295  155.7768 C.2     1  UNL1        0.2493
     10 O         143.2259  138.1836  154.5648 O.2     1  UNL1       -0.2699
     11 C         143.4351  139.3839  157.3063 C.3     1  UNL1        0.1343
     12 C         143.6623  140.2380  156.0943 C.3     1  UNL1        0.0298
     13 C         140.9120  137.3453  164.7610 C.3     1  UNL1        0.0521
     14 C         142.0589  138.2239  164.3578 C.ar    1  UNL1        0.0595
     15 C         143.0677  138.6566  165.3800 C.ar    1  UNL1        0.0148
     16 C         144.2146  139.5352  164.9768 C.ar    1  UNL1        0.0029
     17 C         144.3527  139.9810  163.5512 C.ar    1  UNL1        0.0222
     18 C         143.3439  139.5482  162.5289 C.ar    1  UNL1        0.1167
     19 N         142.1970  138.6696  162.9322 N.ar    1  UNL1       -0.2466
     20 C         142.6670  135.8753  155.6181 C.ar    1  UNL1        0.0536
     21 C         141.3000  135.4638  155.1577 C.ar    1  UNL1        0.0045
     22 C         140.9683  134.0096  154.9990 C.ar    1  UNL1        0.0001
     23 C         142.0035  132.9669  155.3007 C.ar    1  UNL1        0.0000
     24 C         143.3705  133.3784  155.7611 C.ar    1  UNL1        0.0001
     25 C         143.7022  134.8326  155.9198 C.ar    1  UNL1        0.0045
     26 C         141.6718  131.5126  155.1420 C.ar    1  UNL1        0.0000
     27 C         140.3555  131.1039  154.5501 C.ar    1  UNL1        0.0000
     28 C         140.0238  129.6497  154.3913 C.ar    1  UNL1        0.0000
     29 C         141.0083  128.6042  154.8246 C.ar    1  UNL1        0.0000
     30 C         142.3245  129.0130  155.4165 C.ar    1  UNL1        0.0000
     31 C         142.6563  130.4672  155.5752 C.ar    1  UNL1        0.0000
@<TRIPOS>BOND
     1    13    14    1
     2    14    15   ar
     3    15    16   ar
     4    16    17   ar
     5    17    18   ar
     6    18     1    1
     7     1     2   ar
     8     2     3   ar
     9     3     4   ar
    10     4     5   ar
    11     5     6    1
    12     6     7    1
    13     7     8    1
    14     8     9   am
    15     9    10    2
    16     9    20    1
    17    20    21   ar
    18    21    22   ar
    19    22    23   ar
    20    23    26    1
    21    26    27   ar
    22    27    28   ar
    23    28    29   ar
    24    29    30   ar
    25    30    31   ar
    26    23    24   ar
    27    24    25   ar
    28     8    11    1
    29    11    12    1
    30    18    19   ar
    31    19    14   ar
    32     5     1   ar
    33    25    20   ar
    34    11     4    1
    35    31    26   ar
@<TRIPOS>MOLECULE
*****
 31 35 0 0 0
SMALL
GASTEIGER

@<TRIPOS>ATOM
      1 C         142.1946  139.9891  166.3650 C.ar    1  UNL1        0.1840
      2 N         143.0790  138.8026  166.6100 N.ar    1  UNL1       -0.1274
      3 N         143.6116  138.3404  165.2861 N.ar    1  UNL1       -0.1316
      4 C         143.0563  139.2412  164.2229 C.ar    1  UNL1        0.1615
      5 N         142.1806  140.2602  164.8898 N.ar    1  UNL1       -0.2944
      6 C         141.4835  141.3032  164.0675 C.3     1  UNL1        0.1302
      7 C         141.6622  141.3273  162.5784 C.3     1  UNL1        0.1186
      8 N         142.5379  140.3083  161.9115 N.am    1  UNL1       -0.2688
      9 C         142.7166  140.3323  160.4224 C.2     1  UNL1        0.2493
     10 O         143.5924  139.3133  159.7556 O.2     1  UNL1       -0.2699
     11 C         143.2350  139.2652  162.7338 C.3     1  UNL1        0.1343
     12 C         144.1107  138.2462  162.0670 C.3     1  UNL1        0.0298
     13 C         138.5476  140.2256  170.0587 C.3     1  UNL1        0.0521
     14 C         139.6307  140.8862  169.2584 C.ar    1  UNL1        0.0595
     15 C         139.9735  142.3256  169.5048 C.ar    1  UNL1        0.0148
     16 C         141.0566  142.9862  168.7045 C.ar    1  UNL1        0.0029
     17 C         141.7970  142.2073  167.6579 C.ar    1  UNL1        0.0222
     18 C         141.4542  140.7679  167.4116 C.ar    1  UNL1        0.1167
     19 N         140.3711  140.1073  168.2119 N.ar    1  UNL1       -0.2466
     20 C         142.0196  141.3754  159.6002 C.ar    1  UNL1        0.0536
     21 C         140.6861  141.0756  158.9821 C.ar    1  UNL1        0.0045
     22 C         139.9891  142.1187  158.1598 C.ar    1  UNL1        0.0001
     23 C         140.6255  143.4615  157.9557 C.ar    1  UNL1        0.0000
     24 C         141.9589  143.7613  158.5737 C.ar    1  UNL1        0.0001
     25 C         142.6560  142.7183  159.3960 C.ar    1  UNL1        0.0045
     26 C         139.9284  144.5047  157.1334 C.ar    1  UNL1        0.0000
     27 C         140.2640  145.9547  157.3202 C.ar    1  UNL1        0.0000
     28 C         139.5670  146.9978  156.4980 C.ar    1  UNL1        0.0000
     29 C         138.5344  146.5909  155.4890 C.ar    1  UNL1        0.0000
     30 C         138.1989  145.1409  155.3021 C.ar    1  UNL1        0.0000
     31 C         138.8959  144.0978  156.1243 C.ar    1  UNL1        0.0000
@<TRIPOS>BOND
     1    13    14    1
     2    14    15   ar
     3    15    16   ar
     4    16    17   ar
     5    17    18   ar
     6    18     1    1
     7     1     2   ar
     8     2     3   ar
     9     3     4   ar
    10     4     5   ar
    11     5     6    1
    12     6     7    1
    13     7     8    1
    14     8     9   am
    15     9    10    2
    16     9    20    1
    17    20    21   ar
    18    21    22   ar
    19    22    23   ar
    20    23    26    1
    21    26    27   ar
    22    27    28   ar
    23    28    29   ar
    24    29    30   ar
    25    30    31   ar
    26    23    24   ar
    27    24    25   ar
    28     8    11    1
    29    11    12    1
    30    18    19   ar
    31    19    14   ar
    32     5     1   ar
    33    25    20   ar
    34    11     4    1
    35    31    26   ar
