@<TRIPOS>MOLECULE
*****
 42 46 0 0 0
SMALL
GASTEIGER

@<TRIPOS>ATOM
      1 C         142.6121  139.5177  158.7959 C.ar    1  UNL1        0.0035
      2 C         143.5636  140.5753  158.3204 C.ar    1  UNL1        0.0295
      3 C         144.0310  141.6430  159.2647 C.ar    1  UNL1        0.1416
      4 F         144.9825  142.7006  158.7892 F       1  UNL1       -0.2041
      5 C         143.5468  141.6531  160.6843 C.ar    1  UNL1        0.0486
      6 C         142.5953  140.5955  161.1598 C.ar    1  UNL1        0.0866
      7 C         142.1279  139.5278  160.2156 C.ar    1  UNL1        0.0250
      8 N         142.1111  140.6057  162.5795 N.ar    1  UNL1       -0.1945
      9 N         140.8430  141.3239  162.9343 N.ar    1  UNL1       -0.1610
     10 C         140.3589  141.3340  164.3540 C.ar    1  UNL1        0.1208
     11 C         141.1429  140.6259  165.4189 C.ar    1  UNL1        0.0274
     12 C         140.6588  140.6361  166.8386 C.ar    1  UNL1       -0.0024
     13 C         141.4428  139.9280  167.9034 C.ar    1  UNL1       -0.0205
     14 C         142.7110  139.2098  167.5486 C.ar    1  UNL1        0.0255
     15 C         143.1951  139.1997  166.1289 C.ar    1  UNL1        0.1445
     16 F         144.4633  138.4815  165.7741 F       1  UNL1       -0.2040
     17 C         142.4111  139.9077  165.0640 C.ar    1  UNL1        0.0868
     18 C         142.8952  139.8976  163.6444 C.ar    1  UNL1        0.2825
     19 O         144.1634  139.1794  163.2895 O.2     1  UNL1       -0.2651
     20 C         140.9587  139.9381  169.3231 C.3     1  UNL1        0.0190
     21 C         142.2955  139.4363  169.7825 C.3     1  UNL1        0.0044
     22 C         139.6219  140.4400  168.8637 C.3     1  UNL1        0.0044
     23 C         140.4746  139.9482  170.7429 C.3     1  UNL1        0.0044
     24 C         139.0943  137.7213  155.4198 C.3     1  UNL1        0.1336
     25 N         140.3858  137.5518  156.1637 N.ar    1  UNL1       -0.2911
     26 C         140.8532  138.6195  157.1078 C.ar    1  UNL1        0.0784
     27 C         142.1447  138.4500  157.8517 C.ar    1  UNL1        0.0186
     28 C         142.9688  137.2128  157.6514 C.ar    1  UNL1        0.0210
     29 C         142.5014  136.1450  156.7071 C.ar    1  UNL1        0.1073
     30 C         141.2099  136.3145  155.9633 C.ar    1  UNL1        0.2745
     31 O         140.7425  135.2468  155.0191 O.2     1  UNL1       -0.2656
     32 N         143.3255  134.9079  156.5068 N.am    1  UNL1       -0.2801
     33 C         143.7170  134.0684  157.6866 C.2     1  UNL1        0.2285
     34 O         143.2844  134.4660  159.0667 O.2     1  UNL1       -0.2747
     35 H         143.6095  134.6468  155.6010 H       1  UNL1        0.1550
     36 C         144.5412  132.8311  157.4863 C.3     1  UNL1        0.1120
     37 C         145.4963  131.8057  158.0214 C.3     1  UNL1        0.0476
     38 C         145.0136  131.7136  156.6042 C.3     1  UNL1        0.1701
     39 F         145.0076  131.0152  155.2768 F       1  UNL1       -0.2368
     40 C         141.1764  138.4702  160.6911 C.3     1  UNL1        0.1651
     41 O         141.6918  137.2850  161.4524 O.3     1  UNL1       -0.3772
     42 H         142.2547  136.7482  160.8727 H       1  UNL1        0.2109
@<TRIPOS>BOND
     1    24    25    1
     2    25    26   ar
     3    26    27   ar
     4    27     1    1
     5     1     2   ar
     6     2     3   ar
     7     3     4    1
     8     3     5   ar
     9     5     6   ar
    10     6     8    1
    11     8     9   ar
    12     9    10   ar
    13    10    11   ar
    14    11    12   ar
    15    12    13   ar
    16    13    20    1
    17    20    21    1
    18    20    22    1
    19    20    23    1
    20    13    14   ar
    21    14    15   ar
    22    15    16    1
    23    15    17   ar
    24    17    18   ar
    25    18    19    2
    26     6     7   ar
    27     7    40    1
    28    40    41    1
    29    27    28   ar
    30    28    29   ar
    31    29    32    1
    32    32    33   am
    33    33    34    2
    34    36    33    1
    35    36    37    1
    36    37    38    1
    37    38    39    1
    38    29    30   ar
    39    30    31    2
    40    30    25   ar
    41     7     1   ar
    42    38    36    1
    43    18     8   ar
    44    17    11   ar
    45    41    42    1
    46    32    35    1
@<TRIPOS>MOLECULE
*****
 42 46 0 0 0
SMALL
GASTEIGER

@<TRIPOS>ATOM
      1 C         139.2608  142.9193  158.2881 C.ar    1  UNL1        0.0035
      2 C         139.8958  144.1286  157.6682 C.ar    1  UNL1        0.0295
      3 C         140.5891  145.1386  158.5339 C.ar    1  UNL1        0.1416
      4 F         141.2240  146.3480  157.9140 F       1  UNL1       -0.2041
      5 C         140.6475  144.9391  160.0194 C.ar    1  UNL1        0.0486
      6 C         140.0126  143.7298  160.6393 C.ar    1  UNL1        0.0866
      7 C         139.3193  142.7198  159.7737 C.ar    1  UNL1        0.0250
      8 N         140.0710  143.5303  162.1249 N.ar    1  UNL1       -0.1945
      9 N         138.8827  143.8707  162.9746 N.ar    1  UNL1       -0.1610
     10 C         138.9411  143.6712  164.4601 C.ar    1  UNL1        0.1208
     11 C         140.1879  143.1315  165.0959 C.ar    1  UNL1        0.0274
     12 C         140.2463  142.9320  166.5815 C.ar    1  UNL1       -0.0024
     13 C         141.4930  142.3923  167.2173 C.ar    1  UNL1       -0.0205
     14 C         142.6814  142.0519  166.3675 C.ar    1  UNL1        0.0255
     15 C         142.6229  142.2513  164.8820 C.ar    1  UNL1        0.1445
     16 F         143.8112  141.9110  164.0323 F       1  UNL1       -0.2040
     17 C         141.3762  142.7911  164.2462 C.ar    1  UNL1        0.0868
     18 C         141.3177  142.9906  162.7607 C.ar    1  UNL1        0.2825
     19 O         142.5061  142.6502  161.9109 O.2     1  UNL1       -0.2651
     20 C         141.5515  142.1928  168.7028 C.3     1  UNL1        0.0190
     21 C         142.6336  141.1698  168.5229 C.3     1  UNL1        0.0044
     22 C         140.4694  143.2158  168.8827 C.3     1  UNL1        0.0044
     23 C         141.6100  141.9933  170.1884 C.3     1  UNL1        0.0044
     24 C         139.3748  138.5050  155.5493 C.3     1  UNL1        0.1336
     25 N         138.6245  139.7022  156.0531 N.ar    1  UNL1       -0.2911
     26 C         139.3178  140.7121  156.9187 C.ar    1  UNL1        0.0784
     27 C         138.5675  141.9093  157.4225 C.ar    1  UNL1        0.0186
     28 C         137.1240  142.0966  157.0607 C.ar    1  UNL1        0.0210
     29 C         136.4306  141.0867  156.1950 C.ar    1  UNL1        0.1073
     30 C         137.1808  139.8895  155.6912 C.ar    1  UNL1        0.2745
     31 O         136.4875  138.8795  154.8256 O.2     1  UNL1       -0.2656
     32 N         134.9870  141.2740  155.8332 N.am    1  UNL1       -0.2801
     33 C         133.9272  140.4864  156.5448 C.2     1  UNL1        0.2285
     34 O         134.3110  139.5116  157.6183 O.2     1  UNL1       -0.2747
     35 H         134.7351  141.9138  155.1286 H       1  UNL1        0.1550
     36 C         132.4835  140.6737  156.1830 C.3     1  UNL1        0.1120
     37 C         131.4215  141.3975  155.4097 C.3     1  UNL1        0.0476
     38 C         131.0452  140.2742  156.3297 C.3     1  UNL1        0.1701
     39 F         129.9975  139.3950  156.9456 F       1  UNL1       -0.2368
     40 C         138.6843  141.5105  160.3936 C.3     1  UNL1        0.1651
     41 O         137.5441  141.6716  161.3549 O.3     1  UNL1       -0.3772
     42 H         137.8577  142.1191  162.1564 H       1  UNL1        0.2109
@<TRIPOS>BOND
     1    24    25    1
     2    25    26   ar
     3    26    27   ar
     4    27     1    1
     5     1     2   ar
     6     2     3   ar
     7     3     4    1
     8     3     5   ar
     9     5     6   ar
    10     6     8    1
    11     8     9   ar
    12     9    10   ar
    13    10    11   ar
    14    11    12   ar
    15    12    13   ar
    16    13    20    1
    17    20    21    1
    18    20    22    1
    19    20    23    1
    20    13    14   ar
    21    14    15   ar
    22    15    16    1
    23    15    17   ar
    24    17    18   ar
    25    18    19    2
    26     6     7   ar
    27     7    40    1
    28    40    41    1
    29    27    28   ar
    30    28    29   ar
    31    29    32    1
    32    32    33   am
    33    33    34    2
    34    36    33    1
    35    36    37    1
    36    37    38    1
    37    38    39    1
    38    29    30   ar
    39    30    31    2
    40    30    25   ar
    41     7     1   ar
    42    38    36    1
    43    18     8   ar
    44    17    11   ar
    45    41    42    1
    46    32    35    1
@<TRIPOS>MOLECULE
*****
 42 46 0 0 0
SMALL
GASTEIGER

@<TRIPOS>ATOM
      1 C         140.2973  139.1912  158.7034 C.ar    1  UNL1        0.0035
      2 C         139.0716  139.7563  158.0489 C.ar    1  UNL1        0.0295
      3 C         137.9231  140.2298  158.8896 C.ar    1  UNL1        0.1416
      4 F         136.6974  140.7949  158.2351 F       1  UNL1       -0.2041
      5 C         138.0003  140.1382  160.3848 C.ar    1  UNL1        0.0486
      6 C         139.2260  139.5731  161.0393 C.ar    1  UNL1        0.0866
      7 C         140.3744  139.0996  160.1986 C.ar    1  UNL1        0.0250
      8 N         139.3031  139.4816  162.5346 N.ar    1  UNL1       -0.1945
      9 N         138.8420  138.2377  163.2346 N.ar    1  UNL1       -0.1610
     10 C         138.9192  138.1462  164.7298 C.ar    1  UNL1        0.1208
     11 C         139.4575  139.2985  165.5249 C.ar    1  UNL1        0.0274
     12 C         139.5347  139.2070  167.0202 C.ar    1  UNL1       -0.0024
     13 C         140.0730  140.3593  167.8154 C.ar    1  UNL1       -0.0205
     14 C         140.5341  141.6033  167.1152 C.ar    1  UNL1        0.0255
     15 C         140.4569  141.6948  165.6201 C.ar    1  UNL1        0.1445
     16 F         140.9181  142.9387  164.9200 F       1  UNL1       -0.2040
     17 C         139.9186  140.5424  164.8249 C.ar    1  UNL1        0.0868
     18 C         139.8414  140.6339  163.3297 C.ar    1  UNL1        0.2825
     19 O         140.3026  141.8779  162.6296 O.2     1  UNL1       -0.2651
     20 C         140.1502  140.2678  169.3105 C.3     1  UNL1        0.0190
     21 C         141.6413  140.4157  169.2426 C.3     1  UNL1        0.0044
     22 C         138.6590  140.1200  169.3785 C.3     1  UNL1        0.0044
     23 C         140.2274  140.1763  170.8058 C.3     1  UNL1        0.0044
     24 C         144.8193  140.1308  156.3226 C.3     1  UNL1        0.1336
     25 N         143.7067  139.1875  156.6723 N.ar    1  UNL1       -0.2911
     26 C         142.5583  139.6610  157.5130 C.ar    1  UNL1        0.0784
     27 C         141.4457  138.7176  157.8627 C.ar    1  UNL1        0.0186
     28 C         141.4817  137.3007  157.3718 C.ar    1  UNL1        0.0210
     29 C         142.6302  136.8271  156.5311 C.ar    1  UNL1        0.1073
     30 C         143.7427  137.7705  156.1814 C.ar    1  UNL1        0.2745
     31 O         144.8912  137.2970  155.3407 O.2     1  UNL1       -0.2656
     32 N         142.6661  135.4102  156.0401 N.am    1  UNL1       -0.2801
     33 C         143.1330  134.3129  156.9500 C.2     1  UNL1        0.2285
     34 O         143.5640  134.6325  158.3507 O.2     1  UNL1       -0.2747
     35 H         142.3832  135.2005  155.1208 H       1  UNL1        0.1550
     36 C         143.1689  132.8959  156.4591 C.3     1  UNL1        0.1120
     37 C         142.4503  131.6536  156.0232 C.3     1  UNL1        0.0476
     38 C         143.9498  131.6841  156.0447 C.3     1  UNL1        0.1701
     39 F         145.2664  131.0021  155.8179 F       1  UNL1       -0.2368
     40 C         141.6001  138.5345  160.8532 C.3     1  UNL1        0.1651
     41 O         141.4975  137.2987  161.6972 O.3     1  UNL1       -0.3772
     42 H         140.9655  137.4890  162.4857 H       1  UNL1        0.2109
@<TRIPOS>BOND
     1    24    25    1
     2    25    26   ar
     3    26    27   ar
     4    27     1    1
     5     1     2   ar
     6     2     3   ar
     7     3     4    1
     8     3     5   ar
     9     5     6   ar
    10     6     8    1
    11     8     9   ar
    12     9    10   ar
    13    10    11   ar
    14    11    12   ar
    15    12    13   ar
    16    13    20    1
    17    20    21    1
    18    20    22    1
    19    20    23    1
    20    13    14   ar
    21    14    15   ar
    22    15    16    1
    23    15    17   ar
    24    17    18   ar
    25    18    19    2
    26     6     7   ar
    27     7    40    1
    28    40    41    1
    29    27    28   ar
    30    28    29   ar
    31    29    32    1
    32    32    33   am
    33    33    34    2
    34    36    33    1
    35    36    37    1
    36    37    38    1
    37    38    39    1
    38    29    30   ar
    39    30    31    2
    40    30    25   ar
    41     7     1   ar
    42    38    36    1
    43    18     8   ar
    44    17    11   ar
    45    41    42    1
    46    32    35    1
@<TRIPOS>MOLECULE
*****
 42 46 0 0 0
SMALL
GASTEIGER

@<TRIPOS>ATOM
      1 C         140.4192  139.6064  158.6711 C.ar    1  UNL1        0.0035
      2 C         139.0809  139.8402  158.0352 C.ar    1  UNL1        0.0295
      3 C         137.9642  140.4404  158.8370 C.ar    1  UNL1        0.1416
      4 F         136.6259  140.6743  158.2012 F       1  UNL1       -0.2041
      5 C         138.1858  140.8067  160.2746 C.ar    1  UNL1        0.0486
      6 C         139.5241  140.5728  160.9105 C.ar    1  UNL1        0.0866
      7 C         140.6407  139.9727  160.1088 C.ar    1  UNL1        0.0250
      8 N         139.7456  140.9391  162.3482 N.ar    1  UNL1       -0.1945
      9 N         140.4348  142.2249  162.6969 N.ar    1  UNL1       -0.1610
     10 C         140.6563  142.5911  164.1345 C.ar    1  UNL1        0.1208
     11 C         140.1886  141.6716  165.2234 C.ar    1  UNL1        0.0274
     12 C         140.4102  142.0379  166.6611 C.ar    1  UNL1       -0.0024
     13 C         139.9425  141.1183  167.7499 C.ar    1  UNL1       -0.0205
     14 C         139.2533  139.8324  167.4011 C.ar    1  UNL1        0.0255
     15 C         139.0318  139.4662  165.9635 C.ar    1  UNL1        0.1445
     16 F         138.3426  138.1803  165.6148 F       1  UNL1       -0.2040
     17 C         139.4995  140.3857  164.8747 C.ar    1  UNL1        0.0868
     18 C         139.2779  140.0195  163.4371 C.ar    1  UNL1        0.2825
     19 O         138.5887  138.7336  163.0883 O.2     1  UNL1       -0.2651
     20 C         140.1640  141.4845  169.1875 C.3     1  UNL1        0.0190
     21 C         141.0988  142.5787  168.7648 C.3     1  UNL1        0.0044
     22 C         139.2292  140.3903  169.6103 C.3     1  UNL1        0.0044
     23 C         140.3856  141.8508  170.6252 C.3     1  UNL1        0.0044
     24 C         144.5066  140.1813  155.5148 C.3     1  UNL1        0.1336
     25 N         143.5796  139.2937  156.2912 N.ar    1  UNL1       -0.2911
     26 C         142.4629  139.8938  157.0929 C.ar    1  UNL1        0.0784
     27 C         141.5359  139.0062  157.8694 C.ar    1  UNL1        0.0186
     28 C         141.7256  137.5185  157.8441 C.ar    1  UNL1        0.0210
     29 C         142.8423  136.9183  157.0424 C.ar    1  UNL1        0.1073
     30 C         143.7693  137.8059  156.2659 C.ar    1  UNL1        0.2745
     31 O         144.8860  137.2058  155.4642 O.2     1  UNL1       -0.2656
     32 N         143.0320  135.4306  157.0171 N.am    1  UNL1       -0.2801
     33 C         142.1695  134.5795  156.1330 C.2     1  UNL1        0.2285
     34 O         141.1173  135.2161  155.2741 O.2     1  UNL1       -0.2747
     35 H         143.7226  135.0128  157.5808 H       1  UNL1        0.1550
     36 C         142.3592  133.0917  156.1077 C.3     1  UNL1        0.1120
     37 C         142.0720  131.7559  155.4888 C.3     1  UNL1        0.0476
     38 C         142.9749  131.8507  156.6828 C.3     1  UNL1        0.1701
     39 F         143.8516  131.1889  157.7042 F       1  UNL1       -0.2368
     40 C         141.9790  139.7388  160.7447 C.3     1  UNL1        0.1651
     41 O         142.9008  140.8946  160.9990 O.3     1  UNL1       -0.3772
     42 H         143.1870  141.2722  160.1527 H       1  UNL1        0.2109
@<TRIPOS>BOND
     1    24    25    1
     2    25    26   ar
     3    26    27   ar
     4    27     1    1
     5     1     2   ar
     6     2     3   ar
     7     3     4    1
     8     3     5   ar
     9     5     6   ar
    10     6     8    1
    11     8     9   ar
    12     9    10   ar
    13    10    11   ar
    14    11    12   ar
    15    12    13   ar
    16    13    20    1
    17    20    21    1
    18    20    22    1
    19    20    23    1
    20    13    14   ar
    21    14    15   ar
    22    15    16    1
    23    15    17   ar
    24    17    18   ar
    25    18    19    2
    26     6     7   ar
    27     7    40    1
    28    40    41    1
    29    27    28   ar
    30    28    29   ar
    31    29    32    1
    32    32    33   am
    33    33    34    2
    34    36    33    1
    35    36    37    1
    36    37    38    1
    37    38    39    1
    38    29    30   ar
    39    30    31    2
    40    30    25   ar
    41     7     1   ar
    42    38    36    1
    43    18     8   ar
    44    17    11   ar
    45    41    42    1
    46    32    35    1
@<TRIPOS>MOLECULE
*****
 42 46 0 0 0
SMALL
GASTEIGER

@<TRIPOS>ATOM
      1 C         142.2778  143.4741  158.1363 C.ar    1  UNL1        0.0035
      2 C         143.5324  143.1091  157.3996 C.ar    1  UNL1        0.0295
      3 C         144.7322  142.6223  158.1571 C.ar    1  UNL1        0.1416
      4 F         145.9868  142.2573  157.4204 F       1  UNL1       -0.2041
      5 C         144.6773  142.5004  159.6511 C.ar    1  UNL1        0.0486
      6 C         143.4226  142.8654  160.3877 C.ar    1  UNL1        0.0866
      7 C         142.2229  143.3523  159.6304 C.ar    1  UNL1        0.0250
      8 N         143.3678  142.7436  161.8818 N.ar    1  UNL1       -0.1945
      9 N         143.6124  143.9478  162.7420 N.ar    1  UNL1       -0.1610
     10 C         143.5575  143.8259  164.2360 C.ar    1  UNL1        0.1208
     11 C         143.2580  142.4998  164.8698 C.ar    1  UNL1        0.0274
     12 C         143.2032  142.3779  166.3639 C.ar    1  UNL1       -0.0024
     13 C         142.9037  141.0518  166.9977 C.ar    1  UNL1       -0.0205
     14 C         142.6591  139.8475  166.1374 C.ar    1  UNL1        0.0255
     15 C         142.7139  139.9694  164.6434 C.ar    1  UNL1        0.1445
     16 F         142.4693  138.7652  163.7833 F       1  UNL1       -0.2040
     17 C         143.0134  141.2956  164.0096 C.ar    1  UNL1        0.0868
     18 C         143.0683  141.4175  162.5156 C.ar    1  UNL1        0.2825
     19 O         142.8237  140.2132  161.6554 O.2     1  UNL1       -0.2651
     20 C         142.8488  140.9299  168.4917 C.3     1  UNL1        0.0190
     21 C         143.1773  142.3876  168.6227 C.3     1  UNL1        0.0044
     22 C         142.5203  139.4722  168.3607 C.3     1  UNL1        0.0044
     23 C         142.7939  140.8080  169.9858 C.3     1  UNL1        0.0044
     24 C         137.8797  142.4821  155.5532 C.3     1  UNL1        0.1336
     25 N         138.8790  143.4650  156.0874 N.ar    1  UNL1       -0.2911
     26 C         140.0787  142.9781  156.8447 C.ar    1  UNL1        0.0784
     27 C         141.0781  143.9610  157.3790 C.ar    1  UNL1        0.0186
     28 C         140.8776  145.4307  157.1559 C.ar    1  UNL1        0.0210
     29 C         139.6779  145.9176  156.3985 C.ar    1  UNL1        0.1073
     30 C         138.6786  144.9347  155.8643 C.ar    1  UNL1        0.2745
     31 O         137.4788  145.4216  155.1069 O.2     1  UNL1       -0.2656
     32 N         139.4775  147.3872  156.1754 N.am    1  UNL1       -0.2801
     33 C         139.8034  147.9949  154.8433 C.2     1  UNL1        0.2285
     34 O         140.3297  147.1328  153.7343 O.2     1  UNL1       -0.2747
     35 H         139.1320  147.9530  156.9032 H       1  UNL1        0.1550
     36 C         139.6030  149.4646  154.6201 C.3     1  UNL1        0.1120
     37 C         139.5950  150.6497  153.7006 C.3     1  UNL1        0.0476
     38 C         139.2639  150.8252  155.1531 C.3     1  UNL1        0.1701
     39 F         138.8770  151.7119  156.2993 F       1  UNL1       -0.2368
     40 C         140.9683  143.7173  160.3671 C.3     1  UNL1        0.1651
     41 O         140.9279  144.9564  161.2116 O.3     1  UNL1       -0.3772
     42 H         141.5337  144.8557  161.9625 H       1  UNL1        0.2109
@<TRIPOS>BOND
     1    24    25    1
     2    25    26   ar
     3    26    27   ar
     4    27     1    1
     5     1     2   ar
     6     2     3   ar
     7     3     4    1
     8     3     5   ar
     9     5     6   ar
    10     6     8    1
    11     8     9   ar
    12     9    10   ar
    13    10    11   ar
    14    11    12   ar
    15    12    13   ar
    16    13    20    1
    17    20    21    1
    18    20    22    1
    19    20    23    1
    20    13    14   ar
    21    14    15   ar
    22    15    16    1
    23    15    17   ar
    24    17    18   ar
    25    18    19    2
    26     6     7   ar
    27     7    40    1
    28    40    41    1
    29    27    28   ar
    30    28    29   ar
    31    29    32    1
    32    32    33   am
    33    33    34    2
    34    36    33    1
    35    36    37    1
    36    37    38    1
    37    38    39    1
    38    29    30   ar
    39    30    31    2
    40    30    25   ar
    41     7     1   ar
    42    38    36    1
    43    18     8   ar
    44    17    11   ar
    45    41    42    1
    46    32    35    1
@<TRIPOS>MOLECULE
*****
 42 46 0 0 0
SMALL
GASTEIGER

@<TRIPOS>ATOM
      1 C         142.6040  139.4262  158.9673 C.ar    1  UNL1        0.0035
      2 C         143.5926  140.4547  158.5035 C.ar    1  UNL1        0.0295
      3 C         144.0841  141.5052  159.4548 C.ar    1  UNL1        0.1416
      4 F         145.0726  142.5336  158.9909 F       1  UNL1       -0.2041
      5 C         143.5870  141.5273  160.8698 C.ar    1  UNL1        0.0486
      6 C         142.5985  140.4989  161.3337 C.ar    1  UNL1        0.0866
      7 C         142.1070  139.4484  160.3825 C.ar    1  UNL1        0.0250
      8 N         142.1014  140.5210  162.7488 N.ar    1  UNL1       -0.1945
      9 N         140.8272  141.2373  163.0850 N.ar    1  UNL1       -0.1610
     10 C         140.3302  141.2594  164.5001 C.ar    1  UNL1        0.1208
     11 C         141.1075  140.5652  165.5789 C.ar    1  UNL1        0.0274
     12 C         140.6105  140.5873  166.9941 C.ar    1  UNL1       -0.0024
     13 C         141.3877  139.8931  168.0729 C.ar    1  UNL1       -0.0205
     14 C         142.6621  139.1767  167.7366 C.ar    1  UNL1        0.0255
     15 C         143.1590  139.1546  166.3215 C.ar    1  UNL1        0.1445
     16 F         144.4333  138.4383  165.9853 F       1  UNL1       -0.2040
     17 C         142.3818  139.8489  165.2427 C.ar    1  UNL1        0.0868
     18 C         142.8787  139.8268  163.8276 C.ar    1  UNL1        0.2825
     19 O         144.1531  139.1104  163.4913 O.2     1  UNL1       -0.2651
     20 C         140.8908  139.9152  169.4880 C.3     1  UNL1        0.0190
     21 C         142.2478  139.4967  169.9711 C.3     1  UNL1        0.0044
     22 C         139.5338  140.3336  169.0049 C.3     1  UNL1        0.0044
     23 C         140.3938  139.9373  170.9032 C.3     1  UNL1        0.0044
     24 C         143.3295  134.9357  156.4556 C.3     1  UNL1        0.1336
     25 N         142.4753  136.1305  156.7603 N.ar    1  UNL1       -0.2911
     26 C         142.9668  137.1810  157.7115 C.ar    1  UNL1        0.0784
     27 C         142.1125  138.3757  158.0161 C.ar    1  UNL1        0.0186
     28 C         140.7668  138.5200  157.3695 C.ar    1  UNL1        0.0210
     29 C         140.2752  137.4695  156.4183 C.ar    1  UNL1        0.1073
     30 C         141.1294  136.2747  156.1136 C.ar    1  UNL1        0.2745
     31 O         140.6379  135.2242  155.1624 O.2     1  UNL1       -0.2656
     32 N         138.9294  137.6137  155.7717 N.am    1  UNL1       -0.2801
     33 C         138.7438  138.5709  154.6319 C.2     1  UNL1        0.2285
     34 O         139.9039  139.3839  154.1386 O.2     1  UNL1       -0.2747
     35 H         138.1680  137.0802  156.0955 H       1  UNL1        0.1550
     36 C         137.3980  138.7152  153.9853 C.3     1  UNL1        0.1120
     37 C         136.5435  138.7254  152.7525 C.3     1  UNL1        0.0476
     38 C         135.9216  138.9550  154.0980 C.3     1  UNL1        0.1701
     39 F         134.7101  139.2260  154.9400 F       1  UNL1       -0.2368
     40 C         141.1184  138.4200  160.8463 C.3     1  UNL1        0.1651
     41 O         141.5699  137.2847  161.7166 O.3     1  UNL1       -0.3772
     42 H         142.1747  136.7145  161.2165 H       1  UNL1        0.2109
@<TRIPOS>BOND
     1    24    25    1
     2    25    26   ar
     3    26    27   ar
     4    27     1    1
     5     1     2   ar
     6     2     3   ar
     7     3     4    1
     8     3     5   ar
     9     5     6   ar
    10     6     8    1
    11     8     9   ar
    12     9    10   ar
    13    10    11   ar
    14    11    12   ar
    15    12    13   ar
    16    13    20    1
    17    20    21    1
    18    20    22    1
    19    20    23    1
    20    13    14   ar
    21    14    15   ar
    22    15    16    1
    23    15    17   ar
    24    17    18   ar
    25    18    19    2
    26     6     7   ar
    27     7    40    1
    28    40    41    1
    29    27    28   ar
    30    28    29   ar
    31    29    32    1
    32    32    33   am
    33    33    34    2
    34    36    33    1
    35    36    37    1
    36    37    38    1
    37    38    39    1
    38    29    30   ar
    39    30    31    2
    40    30    25   ar
    41     7     1   ar
    42    38    36    1
    43    18     8   ar
    44    17    11   ar
    45    41    42    1
    46    32    35    1
@<TRIPOS>MOLECULE
*****
 42 46 0 0 0
SMALL
GASTEIGER

@<TRIPOS>ATOM
      1 C         141.3064  143.6494  158.3055 C.ar    1  UNL1        0.0035
      2 C         142.6772  143.3319  157.7857 C.ar    1  UNL1        0.0295
      3 C         143.7628  142.9205  158.7357 C.ar    1  UNL1        0.1416
      4 F         145.1336  142.6030  158.2159 F       1  UNL1       -0.2041
      5 C         143.4776  142.8266  160.2053 C.ar    1  UNL1        0.0486
      6 C         142.1068  143.1441  160.7251 C.ar    1  UNL1        0.0866
      7 C         141.0213  143.5555  159.7752 C.ar    1  UNL1        0.0250
      8 N         141.8217  143.0502  162.1948 N.ar    1  UNL1       -0.1945
      9 N         142.1469  144.2035  163.0970 N.ar    1  UNL1       -0.1610
     10 C         141.8617  144.1095  164.5666 C.ar    1  UNL1        0.1208
     11 C         141.2514  142.8623  165.1340 C.ar    1  UNL1        0.0274
     12 C         140.9662  142.7684  166.6037 C.ar    1  UNL1       -0.0024
     13 C         140.3558  141.5212  167.1710 C.ar    1  UNL1       -0.0205
     14 C         140.0306  140.3678  166.2687 C.ar    1  UNL1        0.0255
     15 C         140.3158  140.4618  164.7991 C.ar    1  UNL1        0.1445
     16 F         139.9906  139.3085  163.8968 F       1  UNL1       -0.2040
     17 C         140.9262  141.7090  164.2317 C.ar    1  UNL1        0.0868
     18 C         141.2113  141.8030  162.7621 C.ar    1  UNL1        0.2825
     19 O         140.8861  140.6496  161.8598 O.2     1  UNL1       -0.2651
     20 C         140.0707  141.4272  168.6406 C.3     1  UNL1        0.0190
     21 C         139.6205  140.0075  168.4625 C.3     1  UNL1        0.0044
     22 C         140.5209  142.8469  168.8188 C.3     1  UNL1        0.0044
     23 C         139.7855  141.3332  170.1103 C.3     1  UNL1        0.0044
     24 C         136.8683  142.5978  155.8161 C.3     1  UNL1        0.1336
     25 N         138.0018  143.5350  156.1110 N.ar    1  UNL1       -0.2911
     26 C         139.0874  143.1236  157.0608 C.ar    1  UNL1        0.0784
     27 C         140.2208  144.0608  157.3557 C.ar    1  UNL1        0.0186
     28 C         140.2687  145.4094  156.7008 C.ar    1  UNL1        0.0210
     29 C         139.1831  145.8208  155.7509 C.ar    1  UNL1        0.1073
     30 C         138.0496  144.8837  155.4560 C.ar    1  UNL1        0.2745
     31 O         136.9640  145.2951  154.5062 O.2     1  UNL1       -0.2656
     32 N         139.2310  147.1694  155.0959 N.am    1  UNL1       -0.2801
     33 C         138.9383  148.4031  155.8973 C.2     1  UNL1        0.2285
     34 O         138.5977  148.2883  157.3536 O.2     1  UNL1       -0.2747
     35 H         139.4545  147.2448  154.1401 H       1  UNL1        0.1550
     36 C         138.9862  149.7518  155.2423 C.3     1  UNL1        0.1120
     37 C         138.7062  151.2249  155.2802 C.3     1  UNL1        0.0476
     38 C         139.3490  150.6145  154.0701 C.3     1  UNL1        0.1701
     39 F         139.9296  150.7602  152.6948 F       1  UNL1       -0.2368
     40 C         139.6505  143.8730  160.2950 C.3     1  UNL1        0.1651
     41 O         139.3804  145.2025  160.9350 O.3     1  UNL1       -0.3772
     42 H         139.8870  145.2735  161.7592 H       1  UNL1        0.2109
@<TRIPOS>BOND
     1    24    25    1
     2    25    26   ar
     3    26    27   ar
     4    27     1    1
     5     1     2   ar
     6     2     3   ar
     7     3     4    1
     8     3     5   ar
     9     5     6   ar
    10     6     8    1
    11     8     9   ar
    12     9    10   ar
    13    10    11   ar
    14    11    12   ar
    15    12    13   ar
    16    13    20    1
    17    20    21    1
    18    20    22    1
    19    20    23    1
    20    13    14   ar
    21    14    15   ar
    22    15    16    1
    23    15    17   ar
    24    17    18   ar
    25    18    19    2
    26     6     7   ar
    27     7    40    1
    28    40    41    1
    29    27    28   ar
    30    28    29   ar
    31    29    32    1
    32    32    33   am
    33    33    34    2
    34    36    33    1
    35    36    37    1
    36    37    38    1
    37    38    39    1
    38    29    30   ar
    39    30    31    2
    40    30    25   ar
    41     7     1   ar
    42    38    36    1
    43    18     8   ar
    44    17    11   ar
    45    41    42    1
    46    32    35    1
@<TRIPOS>MOLECULE
*****
 42 46 0 0 0
SMALL
GASTEIGER

@<TRIPOS>ATOM
      1 C         140.7933  140.7666  158.8192 C.ar    1  UNL1        0.0035
      2 C         139.6435  141.4249  158.1161 C.ar    1  UNL1        0.0295
      3 C         138.6747  142.2687  158.8906 C.ar    1  UNL1        0.1416
      4 F         137.5248  142.9271  158.1875 F       1  UNL1       -0.2041
      5 C         138.8558  142.4540  160.3680 C.ar    1  UNL1        0.0486
      6 C         140.0057  141.7956  161.0711 C.ar    1  UNL1        0.0866
      7 C         140.9744  140.9519  160.2967 C.ar    1  UNL1        0.0250
      8 N         140.1867  141.9809  162.5486 N.ar    1  UNL1       -0.1945
      9 N         140.8793  143.2043  163.0716 N.ar    1  UNL1       -0.1610
     10 C         141.0604  143.3896  164.5491 C.ar    1  UNL1        0.1208
     11 C         140.5488  142.3515  165.5034 C.ar    1  UNL1        0.0274
     12 C         140.7299  142.5369  166.9809 C.ar    1  UNL1       -0.0024
     13 C         140.2184  141.4988  167.9352 C.ar    1  UNL1       -0.0205
     14 C         139.5258  140.2754  167.4121 C.ar    1  UNL1        0.0255
     15 C         139.3447  140.0901  165.9346 C.ar    1  UNL1        0.1445
     16 F         138.6522  138.8667  165.4116 F       1  UNL1       -0.2040
     17 C         139.8563  141.1282  164.9803 C.ar    1  UNL1        0.0868
     18 C         139.6752  140.9429  163.5029 C.ar    1  UNL1        0.2825
     19 O         138.9826  139.7195  162.9797 O.2     1  UNL1       -0.2651
     20 C         140.3995  141.6841  169.4127 C.3     1  UNL1        0.0190
     21 C         140.4147  140.1956  169.5975 C.3     1  UNL1        0.0044
     22 C         140.3842  143.1726  169.2279 C.3     1  UNL1        0.0044
     23 C         140.5805  141.8694  170.8902 C.3     1  UNL1        0.0044
     24 C         141.9765  136.2915  156.4584 C.3     1  UNL1        0.1336
     25 N         142.3537  137.6853  156.8645 N.ar    1  UNL1       -0.2911
     26 C         141.3849  138.5290  157.6388 C.ar    1  UNL1        0.0784
     27 C         141.7621  139.9229  158.0449 C.ar    1  UNL1        0.0186
     28 C         143.1080  140.4730  157.6766 C.ar    1  UNL1        0.0210
     29 C         144.0769  139.6293  156.9022 C.ar    1  UNL1        0.1073
     30 C         143.6997  138.2355  156.4962 C.ar    1  UNL1        0.2745
     31 O         144.6685  137.3918  155.7218 O.2     1  UNL1       -0.2656
     32 N         145.4228  140.1795  156.5339 N.am    1  UNL1       -0.2801
     33 C         145.6164  140.8683  155.2156 C.2     1  UNL1        0.2285
     34 O         144.4639  141.0069  154.2655 O.2     1  UNL1       -0.2747
     35 H         146.1792  140.0885  157.1575 H       1  UNL1        0.1550
     36 C         146.9624  141.4185  154.8473 C.3     1  UNL1        0.1120
     37 C         147.9116  141.9448  153.8119 C.3     1  UNL1        0.0476
     38 C         148.3444  141.8451  155.2446 C.3     1  UNL1        0.1701
     39 F         149.3923  142.0338  156.3012 F       1  UNL1       -0.2368
     40 C         142.1243  140.2935  160.9998 C.3     1  UNL1        0.1651
     41 O         141.8984  139.0454  161.8006 O.3     1  UNL1       -0.3772
     42 H         141.3360  139.2486  162.5643 H       1  UNL1        0.2109
@<TRIPOS>BOND
     1    24    25    1
     2    25    26   ar
     3    26    27   ar
     4    27     1    1
     5     1     2   ar
     6     2     3   ar
     7     3     4    1
     8     3     5   ar
     9     5     6   ar
    10     6     8    1
    11     8     9   ar
    12     9    10   ar
    13    10    11   ar
    14    11    12   ar
    15    12    13   ar
    16    13    20    1
    17    20    21    1
    18    20    22    1
    19    20    23    1
    20    13    14   ar
    21    14    15   ar
    22    15    16    1
    23    15    17   ar
    24    17    18   ar
    25    18    19    2
    26     6     7   ar
    27     7    40    1
    28    40    41    1
    29    27    28   ar
    30    28    29   ar
    31    29    32    1
    32    32    33   am
    33    33    34    2
    34    36    33    1
    35    36    37    1
    36    37    38    1
    37    38    39    1
    38    29    30   ar
    39    30    31    2
    40    30    25   ar
    41     7     1   ar
    42    38    36    1
    43    18     8   ar
    44    17    11   ar
    45    41    42    1
    46    32    35    1
@<TRIPOS>MOLECULE
*****
 42 46 0 0 0
SMALL
GASTEIGER

@<TRIPOS>ATOM
      1 C         140.9183  140.4038  159.1855 C.ar    1  UNL1        0.0035
      2 C         141.5764  139.2013  158.5766 C.ar    1  UNL1        0.0295
      3 C         142.2748  138.2042  159.4530 C.ar    1  UNL1        0.1416
      4 F         142.9329  137.0016  158.8441 F       1  UNL1       -0.2041
      5 C         142.3150  138.4096  160.9383 C.ar    1  UNL1        0.0486
      6 C         141.6569  139.6121  161.5472 C.ar    1  UNL1        0.0866
      7 C         140.9585  140.6092  160.6709 C.ar    1  UNL1        0.0250
      8 N         141.6971  139.8175  163.0326 N.ar    1  UNL1       -0.1945
      9 N         142.9584  140.2939  163.6900 N.ar    1  UNL1       -0.1610
     10 C         142.9986  140.4992  165.1753 C.ar    1  UNL1        0.1208
     11 C         141.7775  140.2282  166.0032 C.ar    1  UNL1        0.0274
     12 C         141.8178  140.4336  167.4886 C.ar    1  UNL1       -0.0024
     13 C         140.5967  140.1626  168.3165 C.ar    1  UNL1       -0.0205
     14 C         139.3353  139.6862  167.6591 C.ar    1  UNL1        0.0255
     15 C         139.2951  139.4809  166.1738 C.ar    1  UNL1        0.1445
     16 F         138.0338  139.0045  165.5164 F       1  UNL1       -0.2040
     17 C         140.5162  139.7519  165.3459 C.ar    1  UNL1        0.0868
     18 C         140.4760  139.5465  163.8606 C.ar    1  UNL1        0.2825
     19 O         139.2147  139.0701  163.2031 O.2     1  UNL1       -0.2651
     20 C         140.6369  140.3680  169.8018 C.3     1  UNL1        0.0190
     21 C         142.1248  140.1791  169.7877 C.3     1  UNL1        0.0044
     22 C         139.1489  140.5569  169.8160 C.3     1  UNL1        0.0044
     23 C         140.6771  140.5734  171.2872 C.3     1  UNL1        0.0044
     24 C         141.0403  144.7257  156.3035 C.3     1  UNL1        0.1336
     25 N         140.2810  143.5619  156.8681 N.ar    1  UNL1       -0.2911
     26 C         140.9793  142.5648  157.7445 C.ar    1  UNL1        0.0784
     27 C         140.2199  141.4009  158.3091 C.ar    1  UNL1        0.0186
     28 C         138.7622  141.2342  157.9975 C.ar    1  UNL1        0.0210
     29 C         138.0638  142.2313  157.1211 C.ar    1  UNL1        0.1073
     30 C         138.8232  143.3952  156.5564 C.ar    1  UNL1        0.2745
     31 O         138.1248  144.3923  155.6800 O.2     1  UNL1       -0.2656
     32 N         136.6061  142.0646  156.8094 N.am    1  UNL1       -0.2801
     33 C         136.1265  140.8313  156.1030 C.2     1  UNL1        0.2285
     34 O         137.1046  139.7647  155.7084 O.2     1  UNL1       -0.2747
     35 H         135.9641  142.7646  157.0683 H       1  UNL1        0.1550
     36 C         134.6687  140.6645  155.7913 C.3     1  UNL1        0.1120
     37 C         133.4134  141.1670  155.1420 C.3     1  UNL1        0.0476
     38 C         133.3991  139.8732  155.9007 C.3     1  UNL1        0.1701
     39 F         132.6579  138.6693  156.4019 F       1  UNL1       -0.2368
     40 C         140.3004  141.8117  161.2798 C.3     1  UNL1        0.1651
     41 O         138.8526  141.7581  161.6684 O.3     1  UNL1       -0.3772
     42 H         138.3074  141.6605  160.8721 H       1  UNL1        0.2109
@<TRIPOS>BOND
     1    24    25    1
     2    25    26   ar
     3    26    27   ar
     4    27     1    1
     5     1     2   ar
     6     2     3   ar
     7     3     4    1
     8     3     5   ar
     9     5     6   ar
    10     6     8    1
    11     8     9   ar
    12     9    10   ar
    13    10    11   ar
    14    11    12   ar
    15    12    13   ar
    16    13    20    1
    17    20    21    1
    18    20    22    1
    19    20    23    1
    20    13    14   ar
    21    14    15   ar
    22    15    16    1
    23    15    17   ar
    24    17    18   ar
    25    18    19    2
    26     6     7   ar
    27     7    40    1
    28    40    41    1
    29    27    28   ar
    30    28    29   ar
    31    29    32    1
    32    32    33   am
    33    33    34    2
    34    36    33    1
    35    36    37    1
    36    37    38    1
    37    38    39    1
    38    29    30   ar
    39    30    31    2
    40    30    25   ar
    41     7     1   ar
    42    38    36    1
    43    18     8   ar
    44    17    11   ar
    45    41    42    1
    46    32    35    1
