@<TRIPOS>MOLECULE
*****
 33 36 0 0 0
SMALL
GASTEIGER

@<TRIPOS>ATOM
      1 N         140.6693  141.7095  167.8441 N.ar    1  UNL1       -0.2399
      2 N         140.4844  141.9997  166.3841 N.ar    1  UNL1       -0.1681
      3 C         139.6097  140.9273  165.8054 C.ar    1  UNL1        0.1079
      4 C         139.2540  139.9743  166.9077 C.ar    1  UNL1        0.1031
      5 C         139.9088  140.4576  168.1677 C.ar    1  UNL1        0.1280
      6 N         139.8190  139.8039  169.5148 N.pl3   1  UNL1       -0.3427
      7 H         139.2923  138.9799  169.6279 H       1  UNL1        0.1437
      8 H         140.2867  140.1990  170.2858 H       1  UNL1        0.1437
      9 C         139.1682  140.8258  164.3754 C.ar    1  UNL1        0.0197
     10 C         137.8287  141.3612  163.9642 C.ar    1  UNL1        0.0031
     11 C         137.3873  141.2596  162.5343 C.ar    1  UNL1        0.0193
     12 C         138.2854  140.6228  161.5155 C.ar    1  UNL1        0.0844
     13 N         137.8439  140.5213  160.0855 N.ar    1  UNL1       -0.2117
     14 C         138.7420  139.8845  159.0667 C.ar    1  UNL1        0.2247
     15 C         140.0816  139.3491  159.4780 C.ar    1  UNL1        0.0577
     16 C         140.5230  139.4506  160.9079 C.ar    1  UNL1        0.0063
     17 C         139.6249  140.0875  161.9267 C.ar    1  UNL1        0.0180
     18 C         140.0663  140.1890  163.3566 C.ar    1  UNL1        0.0031
     19 O         138.3006  139.7830  157.6368 O.3     1  UNL1       -0.4640
     20 C         137.5099  140.8959  157.0151 C.3     1  UNL1        0.1678
     21 C         137.2500  142.3623  156.8363 C.3     1  UNL1        0.0473
     22 C         136.4004  141.3569  156.1171 C.3     1  UNL1        0.0473
     23 C         138.3943  138.7524  166.7737 C.2     1  UNL1        0.2470
     24 N         138.5744  137.8335  165.6019 N.am    1  UNL1       -0.3252
     25 O         137.3545  138.4494  167.8116 O.2     1  UNL1       -0.2702
     26 H         139.2568  138.0323  164.9207 H       1  UNL1        0.1453
     27 H         138.0101  137.0315  165.5140 H       1  UNL1        0.1453
     28 C         142.9617  142.3548  168.8825 C.3     1  UNL1        0.0265
     29 C         141.4734  142.5274  168.8107 C.3     1  UNL1        0.1091
     30 C         140.7892  143.5178  169.7056 C.3     1  UNL1        0.0561
     31 C         139.8515  143.0401  170.7745 C.3     1  UNL1        0.1392
     32 O         140.3526  142.1384  171.8635 O.3     1  UNL1       -0.3819
     33 H         140.6128  141.2852  171.4826 H       1  UNL1        0.2104
@<TRIPOS>BOND
     1    28    29    1
     2    29    30    1
     3    30    31    1
     4    31    32    1
     5    29     1    1
     6     1     2   ar
     7     2     3   ar
     8     3     9    1
     9     9    10   ar
    10    10    11   ar
    11    11    12   ar
    12    12    13   ar
    13    13    14   ar
    14    14    19    1
    15    19    20    1
    16    20    21    1
    17    21    22    1
    18    14    15   ar
    19    15    16   ar
    20    16    17   ar
    21    17    18   ar
    22     3     4   ar
    23     4    23    1
    24    23    24   am
    25    23    25    2
    26     4     5   ar
    27     5     6    1
    28     5     1   ar
    29    18     9   ar
    30    17    12   ar
    31    22    20    1
    32    32    33    1
    33    24    26    1
    34    24    27    1
    35     6     7    1
    36     6     8    1
@<TRIPOS>MOLECULE
*****
 33 36 0 0 0
SMALL
GASTEIGER

@<TRIPOS>ATOM
      1 N         140.4254  141.5302  167.5783 N.ar    1  UNL1       -0.2399
      2 N         140.3659  141.7220  166.0918 N.ar    1  UNL1       -0.1681
      3 C         139.5466  140.6067  165.5130 C.ar    1  UNL1        0.1079
      4 C         139.0998  139.7257  166.6418 C.ar    1  UNL1        0.1031
      5 C         139.6430  140.2964  167.9182 C.ar    1  UNL1        0.1280
      6 N         139.4394  139.7324  169.2932 N.pl3   1  UNL1       -0.3427
      7 H         138.9069  138.9134  169.4154 H       1  UNL1        0.1437
      8 H         139.8383  140.1812  170.0734 H       1  UNL1        0.1437
      9 C         139.2297  140.4075  164.0604 C.ar    1  UNL1        0.0197
     10 C         137.8953  140.8277  163.5194 C.ar    1  UNL1        0.0031
     11 C         137.5785  140.6285  162.0669 C.ar    1  UNL1        0.0193
     12 C         138.5961  140.0090  161.1554 C.ar    1  UNL1        0.0844
     13 N         138.2793  139.8098  159.7028 N.ar    1  UNL1       -0.2117
     14 C         139.2969  139.1904  158.7913 C.ar    1  UNL1        0.2247
     15 C         140.6313  138.7701  159.3324 C.ar    1  UNL1        0.0577
     16 C         140.9481  138.9694  160.7849 C.ar    1  UNL1        0.0063
     17 C         139.9305  139.5888  161.6964 C.ar    1  UNL1        0.0180
     18 C         140.2473  139.7880  163.1490 C.ar    1  UNL1        0.0031
     19 O         138.9801  138.9911  157.3387 O.3     1  UNL1       -0.4640
     20 C         139.6135  137.8622  156.5809 C.3     1  UNL1        0.1678
     21 C         139.5425  136.8169  155.5074 C.3     1  UNL1        0.0473
     22 C         140.7816  136.9521  156.3418 C.3     1  UNL1        0.0473
     23 C         138.2578  138.4907  166.5163 C.2     1  UNL1        0.2470
     24 N         138.5554  137.4858  165.4432 N.am    1  UNL1       -0.3252
     25 O         137.1179  138.2607  167.4639 O.2     1  UNL1       -0.2702
     26 H         139.3035  137.6367  164.8213 H       1  UNL1        0.1453
     27 H         138.0026  136.6753  165.3609 H       1  UNL1        0.1453
     28 C         142.6273  142.2978  168.7242 C.3     1  UNL1        0.0265
     29 C         141.1417  142.4166  168.5537 C.3     1  UNL1        0.1091
     30 C         140.3724  143.4218  169.3585 C.3     1  UNL1        0.0561
     31 C         139.8389  143.0503  170.7103 C.3     1  UNL1        0.1392
     32 O         140.2419  141.7522  171.3447 O.3     1  UNL1       -0.3819
     33 H         139.8898  141.0142  170.8229 H       1  UNL1        0.2104
@<TRIPOS>BOND
     1    28    29    1
     2    29    30    1
     3    30    31    1
     4    31    32    1
     5    29     1    1
     6     1     2   ar
     7     2     3   ar
     8     3     9    1
     9     9    10   ar
    10    10    11   ar
    11    11    12   ar
    12    12    13   ar
    13    13    14   ar
    14    14    19    1
    15    19    20    1
    16    20    21    1
    17    21    22    1
    18    14    15   ar
    19    15    16   ar
    20    16    17   ar
    21    17    18   ar
    22     3     4   ar
    23     4    23    1
    24    23    24   am
    25    23    25    2
    26     4     5   ar
    27     5     6    1
    28     5     1   ar
    29    18     9   ar
    30    17    12   ar
    31    22    20    1
    32    32    33    1
    33    24    26    1
    34    24    27    1
    35     6     7    1
    36     6     8    1
@<TRIPOS>MOLECULE
*****
 33 36 0 0 0
SMALL
GASTEIGER

@<TRIPOS>ATOM
      1 N         140.1428  140.5195  167.5367 N.ar    1  UNL1       -0.2399
      2 N         140.9129  141.4060  166.6035 N.ar    1  UNL1       -0.1681
      3 C         140.3424  141.2366  165.2266 C.ar    1  UNL1        0.1079
      4 C         139.2197  140.2452  165.3088 C.ar    1  UNL1        0.1031
      5 C         139.0963  139.8020  166.7365 C.ar    1  UNL1        0.1280
      6 N         138.1012  138.8147  167.2704 N.pl3   1  UNL1       -0.3427
      7 H         137.4503  138.3944  166.6630 H       1  UNL1        0.1437
      8 H         138.0989  138.5871  168.2282 H       1  UNL1        0.1437
      9 C         140.8122  141.9357  163.9854 C.ar    1  UNL1        0.0197
     10 C         142.0166  141.4285  163.2491 C.ar    1  UNL1        0.0031
     11 C         142.4863  142.1276  162.0079 C.ar    1  UNL1        0.0193
     12 C         141.7516  143.3340  161.5031 C.ar    1  UNL1        0.0844
     13 N         142.2214  144.0332  160.2618 N.ar    1  UNL1       -0.2117
     14 C         141.4867  145.2395  159.7569 C.ar    1  UNL1        0.2247
     15 C         140.2823  145.7468  160.4933 C.ar    1  UNL1        0.0577
     16 C         139.8126  145.0476  161.7344 C.ar    1  UNL1        0.0063
     17 C         140.5472  143.8412  162.2393 C.ar    1  UNL1        0.0180
     18 C         140.0775  143.1421  163.4805 C.ar    1  UNL1        0.0031
     19 O         141.9564  145.9387  158.5158 O.3     1  UNL1       -0.4640
     20 C         141.1497  145.8502  157.2542 C.3     1  UNL1        0.1678
     21 C         140.1304  146.4327  156.3206 C.3     1  UNL1        0.0473
     22 C         140.7718  145.1146  156.0029 C.3     1  UNL1        0.0473
     23 C         138.3696  139.7790  164.1644 C.2     1  UNL1        0.2470
     24 N         137.3327  140.6916  163.5796 N.am    1  UNL1       -0.3252
     25 O         138.5564  138.3999  163.6045 O.2     1  UNL1       -0.2702
     26 H         137.2101  141.5967  163.9470 H       1  UNL1        0.1453
     27 H         136.7748  140.3854  162.8285 H       1  UNL1        0.1453
     28 C         141.5129  139.5317  169.5109 C.3     1  UNL1        0.0265
     29 C         140.3779  140.3756  169.0112 C.3     1  UNL1        0.1091
     30 C         139.4779  141.0755  169.9859 C.3     1  UNL1        0.0561
     31 C         139.9359  142.3360  170.6577 C.3     1  UNL1        0.1392
     32 O         140.4977  142.2837  172.0475 O.3     1  UNL1       -0.3819
     33 H         139.8024  142.0128  172.6673 H       1  UNL1        0.2104
@<TRIPOS>BOND
     1    28    29    1
     2    29    30    1
     3    30    31    1
     4    31    32    1
     5    29     1    1
     6     1     2   ar
     7     2     3   ar
     8     3     9    1
     9     9    10   ar
    10    10    11   ar
    11    11    12   ar
    12    12    13   ar
    13    13    14   ar
    14    14    19    1
    15    19    20    1
    16    20    21    1
    17    21    22    1
    18    14    15   ar
    19    15    16   ar
    20    16    17   ar
    21    17    18   ar
    22     3     4   ar
    23     4    23    1
    24    23    24   am
    25    23    25    2
    26     4     5   ar
    27     5     6    1
    28     5     1   ar
    29    18     9   ar
    30    17    12   ar
    31    22    20    1
    32    32    33    1
    33    24    26    1
    34    24    27    1
    35     6     7    1
    36     6     8    1
@<TRIPOS>MOLECULE
*****
 33 36 0 0 0
SMALL
GASTEIGER

@<TRIPOS>ATOM
      1 N         140.1575  141.2546  167.9808 N.ar    1  UNL1       -0.2399
      2 N         140.6107  142.3442  167.0549 N.ar    1  UNL1       -0.1681
      3 C         139.9883  142.1001  165.7121 C.ar    1  UNL1        0.1079
      4 C         139.1505  140.8596  165.8081 C.ar    1  UNL1        0.1031
      5 C         139.2550  140.3371  167.2103 C.ar    1  UNL1        0.1280
      6 N         138.5763  139.1121  167.7476 N.pl3   1  UNL1       -0.3427
      7 H         137.9998  138.5713  167.1606 H       1  UNL1        0.1437
      8 H         138.7073  138.8488  168.6871 H       1  UNL1        0.1437
      9 C         140.1717  142.9477  164.4881 C.ar    1  UNL1        0.0197
     10 C         139.4911  144.2808  164.3901 C.ar    1  UNL1        0.0031
     11 C         139.6744  145.1283  163.1662 C.ar    1  UNL1        0.0193
     12 C         140.5383  144.6427  162.0402 C.ar    1  UNL1        0.0844
     13 N         140.7217  145.4903  160.8163 N.ar    1  UNL1       -0.2117
     14 C         141.5856  145.0048  159.6903 C.ar    1  UNL1        0.2247
     15 C         142.2662  143.6716  159.7883 C.ar    1  UNL1        0.0577
     16 C         142.0829  142.8241  161.0122 C.ar    1  UNL1        0.0063
     17 C         141.2189  143.3096  162.1382 C.ar    1  UNL1        0.0180
     18 C         141.0356  142.4621  163.3621 C.ar    1  UNL1        0.0031
     19 O         141.7689  145.8523  158.4663 O.3     1  UNL1       -0.4640
     20 C         140.7016  145.8894  157.4130 C.3     1  UNL1        0.1678
     21 C         139.6687  146.6512  156.6365 C.3     1  UNL1        0.0473
     22 C         139.8859  145.1921  156.3651 C.3     1  UNL1        0.0473
     23 C         138.3489  140.2489  164.6971 C.2     1  UNL1        0.2470
     24 N         137.3825  141.0914  163.9185 N.am    1  UNL1       -0.3252
     25 O         138.5136  138.7954  164.3647 O.2     1  UNL1       -0.2702
     26 H         137.2744  142.0453  164.1367 H       1  UNL1        0.1453
     27 H         136.8564  140.6905  163.1894 H       1  UNL1        0.1453
     28 C         139.9544  142.0304  170.4520 C.3     1  UNL1        0.0265
     29 C         140.5397  141.1082  169.4239 C.3     1  UNL1        0.1091
     30 C         141.5072  140.0397  169.8388 C.3     1  UNL1        0.0561
     31 C         142.8804  140.4141  170.3122 C.3     1  UNL1        0.1392
     32 O         143.6414  139.4878  171.2138 O.3     1  UNL1       -0.3819
     33 H         143.1872  139.4228  172.0684 H       1  UNL1        0.2104
@<TRIPOS>BOND
     1    28    29    1
     2    29    30    1
     3    30    31    1
     4    31    32    1
     5    29     1    1
     6     1     2   ar
     7     2     3   ar
     8     3     9    1
     9     9    10   ar
    10    10    11   ar
    11    11    12   ar
    12    12    13   ar
    13    13    14   ar
    14    14    19    1
    15    19    20    1
    16    20    21    1
    17    21    22    1
    18    14    15   ar
    19    15    16   ar
    20    16    17   ar
    21    17    18   ar
    22     3     4   ar
    23     4    23    1
    24    23    24   am
    25    23    25    2
    26     4     5   ar
    27     5     6    1
    28     5     1   ar
    29    18     9   ar
    30    17    12   ar
    31    22    20    1
    32    32    33    1
    33    24    26    1
    34    24    27    1
    35     6     7    1
    36     6     8    1
@<TRIPOS>MOLECULE
*****
 33 36 0 0 0
SMALL
GASTEIGER

@<TRIPOS>ATOM
      1 N         140.5459  142.2532  168.2939 N.ar    1  UNL1       -0.2399
      2 N         140.3128  142.9471  166.9847 N.ar    1  UNL1       -0.1681
      3 C         139.7104  141.9547  166.0348 C.ar    1  UNL1        0.1079
      4 C         139.5711  140.6474  166.7570 C.ar    1  UNL1        0.1031
      5 C         140.0875  140.8319  168.1532 C.ar    1  UNL1        0.1280
      6 N         140.1368  139.7798  169.2213 N.pl3   1  UNL1       -0.3427
      7 H         139.8106  138.8704  169.0319 H       1  UNL1        0.1437
      8 H         140.4954  139.9986  170.1116 H       1  UNL1        0.1437
      9 C         139.3164  142.2225  164.6124 C.ar    1  UNL1        0.0197
     10 C         138.0318  142.9360  164.3117 C.ar    1  UNL1        0.0031
     11 C         137.6378  143.2039  162.8894 C.ar    1  UNL1        0.0193
     12 C         138.5286  142.7582  161.7678 C.ar    1  UNL1        0.0844
     13 N         138.1346  143.0260  160.3454 N.ar    1  UNL1       -0.2117
     14 C         139.0253  142.5804  159.2238 C.ar    1  UNL1        0.2247
     15 C         140.3100  141.8668  159.5246 C.ar    1  UNL1        0.0577
     16 C         140.7040  141.5990  160.9469 C.ar    1  UNL1        0.0063
     17 C         139.8132  142.0447  162.0685 C.ar    1  UNL1        0.0180
     18 C         140.2072  141.7768  163.4908 C.ar    1  UNL1        0.0031
     19 O         138.6314  142.8482  157.8015 O.3     1  UNL1       -0.4640
     20 C         137.8456  141.8254  157.0356 C.3     1  UNL1        0.1678
     21 C         136.5425  141.3469  156.4674 C.3     1  UNL1        0.0473
     22 C         137.7877  140.5326  156.2772 C.3     1  UNL1        0.0473
     23 C         139.0135  139.3784  166.1838 C.2     1  UNL1        0.2470
     24 N         139.8714  138.5073  165.3149 N.am    1  UNL1       -0.3252
     25 O         137.5977  138.9806  166.4795 O.2     1  UNL1       -0.2702
     26 H         140.8006  138.7684  165.1208 H       1  UNL1        0.1453
     27 H         139.5053  137.6744  164.9387 H       1  UNL1        0.1453
     28 C         140.5450  144.1324  170.0881 C.3     1  UNL1        0.0265
     29 C         141.1340  142.8720  169.5273 C.3     1  UNL1        0.1091
     30 C         142.3113  142.2303  170.1999 C.3     1  UNL1        0.0561
     31 C         143.6637  142.2806  169.5531 C.3     1  UNL1        0.1392
     32 O         144.8080  142.9466  170.2583 O.3     1  UNL1       -0.3819
     33 H         144.6302  143.8969  170.3369 H       1  UNL1        0.2104
@<TRIPOS>BOND
     1    28    29    1
     2    29    30    1
     3    30    31    1
     4    31    32    1
     5    29     1    1
     6     1     2   ar
     7     2     3   ar
     8     3     9    1
     9     9    10   ar
    10    10    11   ar
    11    11    12   ar
    12    12    13   ar
    13    13    14   ar
    14    14    19    1
    15    19    20    1
    16    20    21    1
    17    21    22    1
    18    14    15   ar
    19    15    16   ar
    20    16    17   ar
    21    17    18   ar
    22     3     4   ar
    23     4    23    1
    24    23    24   am
    25    23    25    2
    26     4     5   ar
    27     5     6    1
    28     5     1   ar
    29    18     9   ar
    30    17    12   ar
    31    22    20    1
    32    32    33    1
    33    24    26    1
    34    24    27    1
    35     6     7    1
    36     6     8    1
@<TRIPOS>MOLECULE
*****
 33 36 0 0 0
SMALL
GASTEIGER

@<TRIPOS>ATOM
      1 N         140.6929  141.0389  167.9536 N.ar    1  UNL1       -0.2399
      2 N         139.9533  140.8188  166.6672 N.ar    1  UNL1       -0.1681
      3 C         140.7977  139.9413  165.7914 C.ar    1  UNL1        0.1079
      4 C         142.0591  139.6191  166.5364 C.ar    1  UNL1        0.1031
      5 C         141.9943  140.2974  167.8726 C.ar    1  UNL1        0.1280
      6 N         143.0463  140.2437  168.9406 N.pl3   1  UNL1       -0.3427
      7 H         143.8715  139.7274  168.7932 H       1  UNL1        0.1437
      8 H         142.9116  140.7249  169.7889 H       1  UNL1        0.1437
      9 C         140.4429  139.4690  164.4125 C.ar    1  UNL1        0.0197
     10 C         139.8526  138.1041  164.2160 C.ar    1  UNL1        0.0031
     11 C         139.4978  137.6319  162.8373 C.ar    1  UNL1        0.0193
     12 C         139.7334  138.5245  161.6550 C.ar    1  UNL1        0.0844
     13 N         139.3785  138.0522  160.2762 N.ar    1  UNL1       -0.2117
     14 C         139.6141  138.9448  159.0939 C.ar    1  UNL1        0.2247
     15 C         140.2044  140.3097  159.2904 C.ar    1  UNL1        0.0577
     16 C         140.5592  140.7820  160.6692 C.ar    1  UNL1        0.0063
     17 C         140.3236  139.8894  161.8515 C.ar    1  UNL1        0.0180
     18 C         140.6784  140.3616  163.2303 C.ar    1  UNL1        0.0031
     19 O         139.2593  138.4725  157.7151 O.3     1  UNL1       -0.4640
     20 C         140.2235  137.6220  156.9424 C.3     1  UNL1        0.1678
     21 C         141.6098  137.0861  156.7403 C.3     1  UNL1        0.0473
     22 C         140.5071  136.6848  155.8061 C.3     1  UNL1        0.0473
     23 C         143.1872  138.7680  166.0334 C.2     1  UNL1        0.2470
     24 N         143.5444  138.7804  164.5767 N.am    1  UNL1       -0.3252
     25 O         143.9582  137.9045  166.9874 O.2     1  UNL1       -0.2702
     26 H         143.0384  139.3471  163.9506 H       1  UNL1        0.1453
     27 H         144.2849  138.2218  164.2467 H       1  UNL1        0.1453
     28 C         140.4657  143.3354  169.1471 C.3     1  UNL1        0.0265
     29 C         140.2149  141.8568  169.1165 C.3     1  UNL1        0.1091
     30 C         139.4862  141.1961  170.2490 C.3     1  UNL1        0.0561
     31 C         140.2002  140.2125  171.1280 C.3     1  UNL1        0.1392
     32 O         141.5446  140.5546  171.6985 O.3     1  UNL1       -0.3819
     33 H         142.1915  140.6293  170.9796 H       1  UNL1        0.2104
@<TRIPOS>BOND
     1    28    29    1
     2    29    30    1
     3    30    31    1
     4    31    32    1
     5    29     1    1
     6     1     2   ar
     7     2     3   ar
     8     3     9    1
     9     9    10   ar
    10    10    11   ar
    11    11    12   ar
    12    12    13   ar
    13    13    14   ar
    14    14    19    1
    15    19    20    1
    16    20    21    1
    17    21    22    1
    18    14    15   ar
    19    15    16   ar
    20    16    17   ar
    21    17    18   ar
    22     3     4   ar
    23     4    23    1
    24    23    24   am
    25    23    25    2
    26     4     5   ar
    27     5     6    1
    28     5     1   ar
    29    18     9   ar
    30    17    12   ar
    31    22    20    1
    32    32    33    1
    33    24    26    1
    34    24    27    1
    35     6     7    1
    36     6     8    1
@<TRIPOS>MOLECULE
*****
 33 36 0 0 0
SMALL
GASTEIGER

@<TRIPOS>ATOM
      1 N         140.9130  138.5485  158.3306 N.ar    1  UNL1       -0.2399
      2 N         141.6637  138.3918  159.6197 N.ar    1  UNL1       -0.1681
      3 C         140.7720  138.8529  160.7343 C.ar    1  UNL1        0.1079
      4 C         139.4702  139.2945  160.1340 C.ar    1  UNL1        0.1031
      5 C         139.5574  139.1064  158.6484 C.ar    1  UNL1        0.1280
      6 N         138.4783  139.4210  157.6551 N.pl3   1  UNL1       -0.3427
      7 H         137.6174  139.7863  157.9626 H       1  UNL1        0.1437
      8 H         138.6310  139.2621  156.6956 H       1  UNL1        0.1437
      9 C         141.1208  138.8694  162.1932 C.ar    1  UNL1        0.0197
     10 C         140.9677  137.6241  163.0151 C.ar    1  UNL1        0.0031
     11 C         141.3165  137.6407  164.4738 C.ar    1  UNL1        0.0193
     12 C         141.8186  138.9026  165.1106 C.ar    1  UNL1        0.0844
     13 N         142.1675  138.9191  166.5695 N.ar    1  UNL1       -0.2117
     14 C         142.6695  140.1810  167.2063 C.ar    1  UNL1        0.2247
     15 C         142.8227  141.4264  166.3843 C.ar    1  UNL1        0.0577
     16 C         142.4738  141.4098  164.9255 C.ar    1  UNL1        0.0063
     17 C         141.9718  140.1479  164.2887 C.ar    1  UNL1        0.0180
     18 C         141.6229  140.1313  162.8300 C.ar    1  UNL1        0.0031
     19 O         143.0184  140.1976  168.6650 O.3     1  UNL1       -0.4640
     20 C         143.1942  141.5048  169.3794 C.3     1  UNL1        0.1678
     21 C         144.0889  142.5317  170.0079 C.3     1  UNL1        0.0473
     22 C         142.6039  142.7421  169.9881 C.3     1  UNL1        0.0473
     23 C         138.2887  139.8302  160.8871 C.2     1  UNL1        0.2470
     24 N         137.3259  138.8853  161.5427 N.am    1  UNL1       -0.3252
     25 O         138.0701  141.3111  160.9845 O.2     1  UNL1       -0.2702
     26 H         137.4693  137.9134  161.4787 H       1  UNL1        0.1453
     27 H         136.5504  139.2370  162.0369 H       1  UNL1        0.1453
     28 C         142.0963  139.2595  156.1296 C.3     1  UNL1        0.0265
     29 C         141.4276  138.2072  156.9636 C.3     1  UNL1        0.1091
     30 C         141.2735  136.8136  156.4306 C.3     1  UNL1        0.0561
     31 C         140.0992  136.4677  155.5638 C.3     1  UNL1        0.1392
     32 O         138.7041  136.7017  156.0628 O.3     1  UNL1       -0.3819
     33 H         138.5277  136.1166  156.8161 H       1  UNL1        0.2104
@<TRIPOS>BOND
     1    28    29    1
     2    29    30    1
     3    30    31    1
     4    31    32    1
     5    29     1    1
     6     1     2   ar
     7     2     3   ar
     8     3     9    1
     9     9    10   ar
    10    10    11   ar
    11    11    12   ar
    12    12    13   ar
    13    13    14   ar
    14    14    19    1
    15    19    20    1
    16    20    21    1
    17    21    22    1
    18    14    15   ar
    19    15    16   ar
    20    16    17   ar
    21    17    18   ar
    22     3     4   ar
    23     4    23    1
    24    23    24   am
    25    23    25    2
    26     4     5   ar
    27     5     6    1
    28     5     1   ar
    29    18     9   ar
    30    17    12   ar
    31    22    20    1
    32    32    33    1
    33    24    26    1
    34    24    27    1
    35     6     7    1
    36     6     8    1
@<TRIPOS>MOLECULE
*****
 33 36 0 0 0
SMALL
GASTEIGER

@<TRIPOS>ATOM
      1 N         142.0369  140.2443  167.0582 N.ar    1  UNL1       -0.2399
      2 N         141.8746  139.3835  165.8405 N.ar    1  UNL1       -0.1681
      3 C         142.6417  140.0182  164.7186 C.ar    1  UNL1        0.1079
      4 C         143.2781  141.2712  165.2428 C.ar    1  UNL1        0.1031
      5 C         142.9043  141.4110  166.6888 C.ar    1  UNL1        0.1280
      6 N         143.3243  142.5223  167.6046 N.pl3   1  UNL1       -0.3427
      7 H         143.8981  143.2477  167.2674 H       1  UNL1        0.1437
      8 H         143.0261  142.5262  168.5428 H       1  UNL1        0.1437
      9 C         142.7528  139.4922  163.3182 C.ar    1  UNL1        0.0197
     10 C         144.0075  138.8003  162.8743 C.ar    1  UNL1        0.0031
     11 C         144.1186  138.2743  161.4740 C.ar    1  UNL1        0.0193
     12 C         142.9750  138.4401  160.5176 C.ar    1  UNL1        0.0844
     13 N         143.0862  137.9141  159.1172 N.ar    1  UNL1       -0.2117
     14 C         141.9426  138.0800  158.1607 C.ar    1  UNL1        0.2247
     15 C         140.6879  138.7719  158.6047 C.ar    1  UNL1        0.0577
     16 C         140.5768  139.2979  160.0050 C.ar    1  UNL1        0.0063
     17 C         141.7204  139.1320  160.9614 C.ar    1  UNL1        0.0180
     18 C         141.6093  139.6580  162.3618 C.ar    1  UNL1        0.0031
     19 O         142.0537  137.5540  156.7604 O.3     1  UNL1       -0.4640
     20 C         142.8909  136.3415  156.4789 C.3     1  UNL1        0.1678
     21 C         143.8368  135.5949  155.5857 C.3     1  UNL1        0.0473
     22 C         143.3949  134.9883  156.8844 C.3     1  UNL1        0.0473
     23 C         144.1374  142.2182  164.4588 C.2     1  UNL1        0.2470
     24 N         145.5124  141.8018  164.0278 N.am    1  UNL1       -0.3252
     25 O         143.6217  143.5819  164.1059 O.2     1  UNL1       -0.2702
     26 H         145.8510  140.9068  164.2594 H       1  UNL1        0.1453
     27 H         146.0764  142.4234  163.5132 H       1  UNL1        0.1453
     28 C         140.0133  140.3681  168.6830 C.3     1  UNL1        0.0265
     29 C         141.4371  139.9841  168.4082 C.3     1  UNL1        0.1091
     30 C         142.2610  139.3399  169.4834 C.3     1  UNL1        0.0561
     31 C         142.9876  140.1906  170.4826 C.3     1  UNL1        0.1392
     32 O         143.9237  139.5560  171.4680 O.3     1  UNL1       -0.3819
     33 H         143.4204  138.9890  172.0731 H       1  UNL1        0.2104
@<TRIPOS>BOND
     1    28    29    1
     2    29    30    1
     3    30    31    1
     4    31    32    1
     5    29     1    1
     6     1     2   ar
     7     2     3   ar
     8     3     9    1
     9     9    10   ar
    10    10    11   ar
    11    11    12   ar
    12    12    13   ar
    13    13    14   ar
    14    14    19    1
    15    19    20    1
    16    20    21    1
    17    21    22    1
    18    14    15   ar
    19    15    16   ar
    20    16    17   ar
    21    17    18   ar
    22     3     4   ar
    23     4    23    1
    24    23    24   am
    25    23    25    2
    26     4     5   ar
    27     5     6    1
    28     5     1   ar
    29    18     9   ar
    30    17    12   ar
    31    22    20    1
    32    32    33    1
    33    24    26    1
    34    24    27    1
    35     6     7    1
    36     6     8    1
@<TRIPOS>MOLECULE
*****
 33 36 0 0 0
SMALL
GASTEIGER

@<TRIPOS>ATOM
      1 N         141.6388  140.2637  168.3702 N.ar    1  UNL1       -0.2399
      2 N         142.3492  139.9795  167.0800 N.ar    1  UNL1       -0.1681
      3 C         141.3239  139.5577  166.0695 C.ar    1  UNL1        0.1079
      4 C         139.9800  139.5812  166.7352 C.ar    1  UNL1        0.1031
      5 C         140.1745  140.0175  168.1571 C.ar    1  UNL1        0.1280
      6 N         139.0945  140.1793  169.1853 N.pl3   1  UNL1       -0.3427
      7 H         138.1573  139.9926  168.9484 H       1  UNL1        0.1437
      8 H         139.3227  140.4721  170.0971 H       1  UNL1        0.1437
      9 C         141.5952  139.1789  164.6436 C.ar    1  UNL1        0.0197
     10 C         141.1340  137.8513  164.1196 C.ar    1  UNL1        0.0031
     11 C         141.4052  137.4726  162.6938 C.ar    1  UNL1        0.0193
     12 C         142.1376  138.4215  161.7920 C.ar    1  UNL1        0.0844
     13 N         142.4089  138.0427  160.3662 N.ar    1  UNL1       -0.2117
     14 C         143.1413  138.9916  159.4644 C.ar    1  UNL1        0.2247
     15 C         143.6024  140.3193  159.9885 C.ar    1  UNL1        0.0577
     16 C         143.3312  140.6980  161.4143 C.ar    1  UNL1        0.0063
     17 C         142.5988  139.7491  162.3161 C.ar    1  UNL1        0.0180
     18 C         142.3276  140.1278  163.7419 C.ar    1  UNL1        0.0031
     19 O         143.4125  138.6129  158.0386 O.3     1  UNL1       -0.4640
     20 C         142.5822  137.5561  157.3723 C.3     1  UNL1        0.1678
     21 C         141.2771  137.1087  156.7835 C.3     1  UNL1        0.0473
     22 C         142.4492  136.1731  156.8071 C.3     1  UNL1        0.0473
     23 C         138.6712  139.2301  166.0919 C.2     1  UNL1        0.2470
     24 N         137.8791  138.0593  166.5936 N.am    1  UNL1       -0.3252
     25 O         138.1545  140.0499  164.9469 O.2     1  UNL1       -0.2702
     26 H         138.2182  137.5212  167.3451 H       1  UNL1        0.1453
     27 H         137.0201  137.8289  166.1714 H       1  UNL1        0.1453
     28 C         142.8114  139.7020  170.6195 C.3     1  UNL1        0.0265
     29 C         142.2801  140.7148  169.6490 C.3     1  UNL1        0.1091
     30 C         142.3899  142.1787  169.9572 C.3     1  UNL1        0.0561
     31 C         141.1651  142.9610  170.3280 C.3     1  UNL1        0.1392
     32 O         140.1898  142.4014  171.3208 O.3     1  UNL1       -0.3819
     33 H         139.7704  141.6089  170.9506 H       1  UNL1        0.2104
@<TRIPOS>BOND
     1    28    29    1
     2    29    30    1
     3    30    31    1
     4    31    32    1
     5    29     1    1
     6     1     2   ar
     7     2     3   ar
     8     3     9    1
     9     9    10   ar
    10    10    11   ar
    11    11    12   ar
    12    12    13   ar
    13    13    14   ar
    14    14    19    1
    15    19    20    1
    16    20    21    1
    17    21    22    1
    18    14    15   ar
    19    15    16   ar
    20    16    17   ar
    21    17    18   ar
    22     3     4   ar
    23     4    23    1
    24    23    24   am
    25    23    25    2
    26     4     5   ar
    27     5     6    1
    28     5     1   ar
    29    18     9   ar
    30    17    12   ar
    31    22    20    1
    32    32    33    1
    33    24    26    1
    34    24    27    1
    35     6     7    1
    36     6     8    1
