@<TRIPOS>MOLECULE
*****
 28 31 0 0 0
SMALL
GASTEIGER

@<TRIPOS>ATOM
      1 C         140.6635  139.9326  165.6580 C.ar    1  UNL1        0.0831
      2 C         139.2410  139.6336  165.2878 C.ar    1  UNL1        0.0125
      3 C         138.1892  139.0809  166.2033 C.3     1  UNL1        0.0340
      4 C         139.0550  139.9844  163.8413 C.ar    1  UNL1        0.0924
      5 N         140.3626  140.5002  163.3176 N.ar    1  UNL1       -0.1671
      6 N         141.3567  140.4682  164.4404 N.ar    1  UNL1       -0.2119
      7 C         140.5575  140.6244  170.8068 C.3     1  UNL1        0.0327
      8 C         141.2309  140.0773  169.5832 C.ar    1  UNL1       -0.0026
      9 C         142.5246  139.3290  169.7104 C.ar    1  UNL1        0.0946
     10 N         143.1980  138.7818  168.4868 N.ar    1  UNL1       -0.2426
     11 C         142.5776  138.9830  167.1360 C.ar    1  UNL1        0.1003
     12 C         141.2839  139.7314  167.0089 C.ar    1  UNL1        0.0363
     13 C         140.6105  140.2785  168.2325 C.ar    1  UNL1        0.0003
     14 C         142.7919  140.8965  164.3597 C.ar    1  UNL1        0.1743
     15 N         143.8476  139.9096  163.9576 N.ar    1  UNL1       -0.2243
     16 C         145.2829  140.3379  163.8769 C.ar    1  UNL1        0.1006
     17 C         145.6625  141.7531  164.1982 C.ar    1  UNL1        0.0217
     18 C         144.6068  142.7399  164.6002 C.ar    1  UNL1        0.0161
     19 C         143.1716  142.3116  164.6809 C.ar    1  UNL1        0.0934
     20 CL        142.1159  143.2985  165.0830 Cl      1  UNL1       -0.0790
     21 C         137.7845  139.8440  163.0563 C.3     1  UNL1        0.1166
     22 N         136.9379  141.0505  162.7776 N.3     1  UNL1       -0.2935
     23 H         136.0616  140.9184  163.2826 H       1  UNL1        0.1236
     24 C         137.4409  142.4181  163.1334 C.3     1  UNL1        0.0543
     25 C         137.5097  143.0006  164.5140 C.3     1  UNL1        0.0157
     26 C         138.0747  144.3858  164.4050 C.3     1  UNL1        0.0014
     27 C         138.3551  144.6594  162.9571 C.3     1  UNL1        0.0014
     28 C         137.9634  143.4433  162.1712 C.3     1  UNL1        0.0157
@<TRIPOS>BOND
     1     7     8    1
     2     8     9   ar
     3     9    10   ar
     4    10    11   ar
     5    11    12   ar
     6    12     1    1
     7     1     2   ar
     8     2     3    1
     9     2     4   ar
    10     4    21    1
    11    21    22    1
    12    22    24    1
    13    24    25    1
    14    25    26    1
    15    26    27    1
    16    27    28    1
    17     4     5   ar
    18     5     6   ar
    19     6    14    1
    20    14    15   ar
    21    15    16   ar
    22    16    17   ar
    23    17    18   ar
    24    18    19   ar
    25    19    20    1
    26    12    13   ar
    27    13     8   ar
    28     6     1   ar
    29    19    14   ar
    30    28    24    1
    31    22    23    1
@<TRIPOS>MOLECULE
*****
 28 31 0 0 0
SMALL
GASTEIGER

@<TRIPOS>ATOM
      1 C         140.6818  139.9263  165.5809 C.ar    1  UNL1        0.0831
      2 C         139.2702  139.6057  165.1878 C.ar    1  UNL1        0.0125
      3 C         138.2132  139.0338  166.0853 C.3     1  UNL1        0.0340
      4 C         139.1011  139.9575  163.7395 C.ar    1  UNL1        0.0924
      5 N         140.4083  140.4955  163.2375 N.ar    1  UNL1       -0.1671
      6 N         141.3852  140.4762  164.3755 N.ar    1  UNL1       -0.2119
      7 C         140.4654  140.5672  170.7328 C.3     1  UNL1        0.0327
      8 C         141.1761  140.0516  169.5166 C.ar    1  UNL1       -0.0026
      9 C         142.4892  139.3409  169.6602 C.ar    1  UNL1        0.0946
     10 N         143.1999  138.8254  168.4440 N.ar    1  UNL1       -0.2426
     11 C         142.5974  139.0205  167.0843 C.ar    1  UNL1        0.1003
     12 C         141.2843  139.7312  166.9407 C.ar    1  UNL1        0.0363
     13 C         140.5737  140.2467  168.1569 C.ar    1  UNL1        0.0003
     14 C         142.8145  140.9276  164.3183 C.ar    1  UNL1        0.1743
     15 N         143.1834  142.3091  164.7716 N.ar    1  UNL1       -0.2243
     16 C         144.6128  142.7605  164.7144 C.ar    1  UNL1        0.1006
     17 C         145.6732  141.8304  164.2038 C.ar    1  UNL1        0.0217
     18 C         145.3042  140.4490  163.7505 C.ar    1  UNL1        0.0161
     19 C         143.8749  139.9977  163.8077 C.ar    1  UNL1        0.0934
     20 CL        143.5060  138.6162  163.3544 Cl      1  UNL1       -0.0790
     21 C         137.8453  139.7992  162.9345 C.3     1  UNL1        0.1166
     22 N         137.0193  141.0026  162.5888 N.3     1  UNL1       -0.2935
     23 H         136.0945  140.8504  162.9912 H       1  UNL1        0.1236
     24 C         137.4625  142.3673  163.0260 C.3     1  UNL1        0.0543
     25 C         138.0189  143.4402  162.1377 C.3     1  UNL1        0.0157
     26 C         138.3274  144.6346  162.9910 C.3     1  UNL1        0.0014
     27 C         137.9615  144.2999  164.4067 C.3     1  UNL1        0.0014
     28 C         137.4270  142.8985  164.4283 C.3     1  UNL1        0.0157
@<TRIPOS>BOND
     1     7     8    1
     2     8     9   ar
     3     9    10   ar
     4    10    11   ar
     5    11    12   ar
     6    12     1    1
     7     1     2   ar
     8     2     3    1
     9     2     4   ar
    10     4    21    1
    11    21    22    1
    12    22    24    1
    13    24    25    1
    14    25    26    1
    15    26    27    1
    16    27    28    1
    17     4     5   ar
    18     5     6   ar
    19     6    14    1
    20    14    15   ar
    21    15    16   ar
    22    16    17   ar
    23    17    18   ar
    24    18    19   ar
    25    19    20    1
    26    12    13   ar
    27    13     8   ar
    28     6     1   ar
    29    19    14   ar
    30    28    24    1
    31    22    23    1
@<TRIPOS>MOLECULE
*****
 28 31 0 0 0
SMALL
GASTEIGER

@<TRIPOS>ATOM
      1 C         141.3100  140.6366  166.1284 C.ar    1  UNL1        0.0831
      2 C         142.4097  139.6534  165.8566 C.ar    1  UNL1        0.0125
      3 C         143.1099  138.8086  166.8795 C.3     1  UNL1        0.0340
      4 C         142.6865  139.6632  164.3824 C.ar    1  UNL1        0.0924
      5 N         141.7577  140.6525  163.7431 N.ar    1  UNL1       -0.1671
      6 N         140.9070  141.2541  164.8222 N.ar    1  UNL1       -0.2119
      7 C         140.5034  143.9762  170.0267 C.3     1  UNL1        0.0327
      8 C         140.3140  142.6175  169.4199 C.ar    1  UNL1       -0.0026
      9 C         139.5320  141.5700  170.1555 C.ar    1  UNL1        0.0946
     10 N         139.3427  140.2113  169.5487 N.ar    1  UNL1       -0.2426
     11 C         139.9353  139.9002  168.2064 C.ar    1  UNL1        0.1003
     12 C         140.7173  140.9477  167.4708 C.ar    1  UNL1        0.0363
     13 C         140.9066  142.3064  168.0776 C.ar    1  UNL1        0.0003
     14 C         139.8406  142.2911  164.6289 C.ar    1  UNL1        0.1743
     15 N         140.1963  143.7480  164.6630 N.ar    1  UNL1       -0.2243
     16 C         139.1299  144.7850  164.4697 C.ar    1  UNL1        0.1006
     17 C         137.7079  144.3653  164.2423 C.ar    1  UNL1        0.0217
     18 C         137.3523  142.9084  164.2083 C.ar    1  UNL1        0.0161
     19 C         138.4187  141.8714  164.4015 C.ar    1  UNL1        0.0934
     20 CL        138.0630  140.4145  164.3674 Cl      1  UNL1       -0.0790
     21 C         143.7118  138.8300  163.6722 C.3     1  UNL1        0.1166
     22 N         144.8766  139.4899  162.9955 N.3     1  UNL1       -0.2935
     23 H         145.1855  138.8572  162.2575 H       1  UNL1        0.1236
     24 C         144.7110  140.8413  162.3661 C.3     1  UNL1        0.0543
     25 C         145.0743  142.1556  162.9912 C.3     1  UNL1        0.0157
     26 C         144.7409  143.2422  162.0124 C.3     1  UNL1        0.0014
     27 C         144.1717  142.5996  160.7824 C.3     1  UNL1        0.0014
     28 C         144.1532  141.1157  161.0010 C.3     1  UNL1        0.0157
@<TRIPOS>BOND
     1     7     8    1
     2     8     9   ar
     3     9    10   ar
     4    10    11   ar
     5    11    12   ar
     6    12     1    1
     7     1     2   ar
     8     2     3    1
     9     2     4   ar
    10     4    21    1
    11    21    22    1
    12    22    24    1
    13    24    25    1
    14    25    26    1
    15    26    27    1
    16    27    28    1
    17     4     5   ar
    18     5     6   ar
    19     6    14    1
    20    14    15   ar
    21    15    16   ar
    22    16    17   ar
    23    17    18   ar
    24    18    19   ar
    25    19    20    1
    26    12    13   ar
    27    13     8   ar
    28     6     1   ar
    29    19    14   ar
    30    28    24    1
    31    22    23    1
@<TRIPOS>MOLECULE
*****
 28 31 0 0 0
SMALL
GASTEIGER

@<TRIPOS>ATOM
      1 C         140.7804  139.4017  165.3340 C.ar    1  UNL1        0.0831
      2 C         139.5417  138.7020  164.8584 C.ar    1  UNL1        0.0125
      3 C         138.5024  138.0599  165.7289 C.3     1  UNL1        0.0340
      4 C         139.5246  138.7571  163.3595 C.ar    1  UNL1        0.0924
      5 N         140.7529  139.4909  162.9088 N.ar    1  UNL1       -0.1671
      6 N         141.5289  139.8892  164.1290 N.ar    1  UNL1       -0.2119
      7 C         139.7523  141.0767  170.1441 C.3     1  UNL1        0.0327
      8 C         140.6832  140.4196  169.1686 C.ar    1  UNL1       -0.0026
      9 C         142.0310  139.9428  169.6227 C.ar    1  UNL1        0.0946
     10 N         142.9619  139.2857  168.6472 N.ar    1  UNL1       -0.2426
     11 C         142.5450  139.1053  167.2177 C.ar    1  UNL1        0.1003
     12 C         141.1973  139.5820  166.7636 C.ar    1  UNL1        0.0363
     13 C         140.2664  140.2392  167.7391 C.ar    1  UNL1        0.0003
     14 C         142.8258  140.6428  164.1420 C.ar    1  UNL1        0.1743
     15 N         144.1084  139.9338  163.8220 N.ar    1  UNL1       -0.2243
     16 C         145.4053  140.6873  163.8350 C.ar    1  UNL1        0.1006
     17 C         145.4197  142.1499  164.1680 C.ar    1  UNL1        0.0217
     18 C         144.1371  142.8588  164.4880 C.ar    1  UNL1        0.0161
     19 C         142.8402  142.1052  164.4750 C.ar    1  UNL1        0.0934
     20 CL        141.5576  142.8143  164.7950 Cl      1  UNL1       -0.0790
     21 C         138.4654  138.1799  162.4680 C.3     1  UNL1        0.1166
     22 N         137.5145  139.0890  161.7473 N.3     1  UNL1       -0.2935
     23 H         136.5811  138.8786  162.1006 H       1  UNL1        0.1236
     24 C         137.6860  140.5765  161.8363 C.3     1  UNL1        0.0543
     25 C         137.3160  141.4382  163.0069 C.3     1  UNL1        0.0157
     26 C         137.6590  142.8577  162.6644 C.3     1  UNL1        0.0014
     27 C         138.2410  142.8732  161.2820 C.3     1  UNL1        0.0014
     28 C         138.2577  141.4633  160.7702 C.3     1  UNL1        0.0157
@<TRIPOS>BOND
     1     7     8    1
     2     8     9   ar
     3     9    10   ar
     4    10    11   ar
     5    11    12   ar
     6    12     1    1
     7     1     2   ar
     8     2     3    1
     9     2     4   ar
    10     4    21    1
    11    21    22    1
    12    22    24    1
    13    24    25    1
    14    25    26    1
    15    26    27    1
    16    27    28    1
    17     4     5   ar
    18     5     6   ar
    19     6    14    1
    20    14    15   ar
    21    15    16   ar
    22    16    17   ar
    23    17    18   ar
    24    18    19   ar
    25    19    20    1
    26    12    13   ar
    27    13     8   ar
    28     6     1   ar
    29    19    14   ar
    30    28    24    1
    31    22    23    1
@<TRIPOS>MOLECULE
*****
 28 31 0 0 0
SMALL
GASTEIGER

@<TRIPOS>ATOM
      1 C         140.2221  139.4691  164.7239 C.ar    1  UNL1        0.0831
      2 C         141.0913  138.4180  164.0997 C.ar    1  UNL1        0.0125
      3 C         141.3074  137.0285  164.6218 C.3     1  UNL1        0.0340
      4 C         141.7065  139.0002  162.8618 C.ar    1  UNL1        0.0924
      5 N         141.2175  140.4113  162.7209 N.ar    1  UNL1       -0.1671
      6 N         140.3001  140.7010  163.8717 N.ar    1  UNL1       -0.2119
      7 C         139.4298  140.6122  169.7304 C.3     1  UNL1        0.0327
      8 C         139.0202  139.8868  168.4830 C.ar    1  UNL1       -0.0026
      9 C         137.8049  139.0076  168.4914 C.ar    1  UNL1        0.0946
     10 N         137.3954  138.2823  167.2440 N.ar    1  UNL1       -0.2426
     11 C         138.2011  138.4361  165.9882 C.ar    1  UNL1        0.1003
     12 C         139.4163  139.3153  165.9798 C.ar    1  UNL1        0.0363
     13 C         139.8259  140.0406  167.2272 C.ar    1  UNL1        0.0003
     14 C         139.5860  141.9955  164.1257 C.ar    1  UNL1        0.1743
     15 N         140.3261  143.1556  164.7229 N.ar    1  UNL1       -0.2243
     16 C         139.6121  144.4500  164.9769 C.ar    1  UNL1        0.1006
     17 C         138.1580  144.5845  164.6338 C.ar    1  UNL1        0.0217
     18 C         137.4180  143.4244  164.0367 C.ar    1  UNL1        0.0161
     19 C         138.1320  142.1299  163.7827 C.ar    1  UNL1        0.0934
     20 CL        137.3919  140.9698  163.1856 Cl      1  UNL1       -0.0790
     21 C         142.6458  138.2953  161.9287 C.3     1  UNL1        0.1166
     22 N         144.1225  138.5410  162.0239 N.3     1  UNL1       -0.2935
     23 H         144.4956  138.4629  161.0778 H       1  UNL1        0.1236
     24 C         144.6329  139.8349  162.5852 C.3     1  UNL1        0.0543
     25 C         144.6834  141.1496  161.8648 C.3     1  UNL1        0.0157
     26 C         145.2641  142.1685  162.7999 C.3     1  UNL1        0.0014
     27 C         145.5725  141.4836  164.0982 C.3     1  UNL1        0.0014
     28 C         145.1824  140.0413  163.9656 C.3     1  UNL1        0.0157
@<TRIPOS>BOND
     1     7     8    1
     2     8     9   ar
     3     9    10   ar
     4    10    11   ar
     5    11    12   ar
     6    12     1    1
     7     1     2   ar
     8     2     3    1
     9     2     4   ar
    10     4    21    1
    11    21    22    1
    12    22    24    1
    13    24    25    1
    14    25    26    1
    15    26    27    1
    16    27    28    1
    17     4     5   ar
    18     5     6   ar
    19     6    14    1
    20    14    15   ar
    21    15    16   ar
    22    16    17   ar
    23    17    18   ar
    24    18    19   ar
    25    19    20    1
    26    12    13   ar
    27    13     8   ar
    28     6     1   ar
    29    19    14   ar
    30    28    24    1
    31    22    23    1
@<TRIPOS>MOLECULE
*****
 28 31 0 0 0
SMALL
GASTEIGER

@<TRIPOS>ATOM
      1 C         142.7665  141.5196  165.5121 C.ar    1  UNL1        0.0831
      2 C         143.6105  142.5566  164.8320 C.ar    1  UNL1        0.0125
      3 C         144.6373  143.4288  165.4915 C.3     1  UNL1        0.0340
      4 C         143.2475  142.5681  163.3767 C.ar    1  UNL1        0.0924
      5 N         142.1791  141.5383  163.1573 N.ar    1  UNL1       -0.1671
      6 N         141.8818  140.8903  164.4771 N.ar    1  UNL1       -0.2119
      7 C         142.8087  143.0063  170.4909 C.3     1  UNL1        0.0327
      8 C         142.8223  141.9163  169.4605 C.ar    1  UNL1       -0.0026
      9 C         142.8704  140.4796  169.8890 C.ar    1  UNL1        0.0946
     10 N         142.8840  139.3896  168.8586 N.ar    1  UNL1       -0.2426
     11 C         142.8493  139.7363  167.3997 C.ar    1  UNL1        0.1003
     12 C         142.8012  141.1729  166.9711 C.ar    1  UNL1        0.0363
     13 C         142.7876  142.2629  168.0015 C.ar    1  UNL1        0.0003
     14 C         140.8765  139.8038  164.7192 C.ar    1  UNL1        0.1743
     15 N         141.2159  138.3806  164.3884 N.ar    1  UNL1       -0.2243
     16 C         140.2105  137.2941  164.6305 C.ar    1  UNL1        0.1006
     17 C         138.8657  137.6307  165.2035 C.ar    1  UNL1        0.0217
     18 C         138.5263  139.0538  165.5344 C.ar    1  UNL1        0.0161
     19 C         139.5317  140.1403  165.2922 C.ar    1  UNL1        0.0934
     20 CL        139.1923  141.5635  165.6231 Cl      1  UNL1       -0.0790
     21 C         143.8474  143.4539  162.3253 C.3     1  UNL1        0.1166
     22 N         143.2049  144.7688  161.9964 N.3     1  UNL1       -0.2935
     23 H         143.3199  144.9099  160.9928 H       1  UNL1        0.1236
     24 C         141.7531  144.9912  162.3013 C.3     1  UNL1        0.0543
     25 C         140.6625  145.2004  161.2930 C.3     1  UNL1        0.0157
     26 C         139.3725  145.3820  162.0366 C.3     1  UNL1        0.0014
     27 C         139.6659  145.2850  163.5044 C.3     1  UNL1        0.0014
     28 C         141.1373  145.0435  163.6680 C.3     1  UNL1        0.0157
@<TRIPOS>BOND
     1     7     8    1
     2     8     9   ar
     3     9    10   ar
     4    10    11   ar
     5    11    12   ar
     6    12     1    1
     7     1     2   ar
     8     2     3    1
     9     2     4   ar
    10     4    21    1
    11    21    22    1
    12    22    24    1
    13    24    25    1
    14    25    26    1
    15    26    27    1
    16    27    28    1
    17     4     5   ar
    18     5     6   ar
    19     6    14    1
    20    14    15   ar
    21    15    16   ar
    22    16    17   ar
    23    17    18   ar
    24    18    19   ar
    25    19    20    1
    26    12    13   ar
    27    13     8   ar
    28     6     1   ar
    29    19    14   ar
    30    28    24    1
    31    22    23    1
@<TRIPOS>MOLECULE
*****
 28 31 0 0 0
SMALL
GASTEIGER

@<TRIPOS>ATOM
      1 C         139.2958  140.7644  165.3177 C.ar    1  UNL1        0.0831
      2 C         138.9023  139.9821  166.5356 C.ar    1  UNL1        0.0125
      3 C         137.9249  138.8450  166.5754 C.3     1  UNL1        0.0340
      4 C         139.6579  140.5366  167.7067 C.ar    1  UNL1        0.0924
      5 N         140.5183  141.6616  167.2126 N.ar    1  UNL1       -0.1671
      6 N         140.2945  141.8024  165.7361 N.ar    1  UNL1       -0.2119
      7 C         139.3655  138.0957  160.8597 C.3     1  UNL1        0.0327
      8 C         138.8157  139.2124  161.6967 C.ar    1  UNL1       -0.0026
      9 C         137.7510  140.1115  161.1418 C.ar    1  UNL1        0.0946
     10 N         137.2012  141.2283  161.9789 N.ar    1  UNL1       -0.2426
     11 C         137.7161  141.4459  163.3708 C.ar    1  UNL1        0.1003
     12 C         138.7808  140.5468  163.9257 C.ar    1  UNL1        0.0363
     13 C         139.3306  139.4300  163.0886 C.ar    1  UNL1        0.0003
     14 C         140.9537  142.8050  164.8361 C.ar    1  UNL1        0.1743
     15 N         142.2747  142.4877  164.2002 N.ar    1  UNL1       -0.2243
     16 C         142.9339  143.4904  163.3002 C.ar    1  UNL1        0.1006
     17 C         142.2722  144.8104  163.0359 C.ar    1  UNL1        0.0217
     18 C         140.9512  145.1276  163.6718 C.ar    1  UNL1        0.0161
     19 C         140.2920  144.1249  164.5718 C.ar    1  UNL1        0.0934
     20 CL        138.9710  144.4423  165.2076 Cl      1  UNL1       -0.0790
     21 C         139.5687  140.0514  169.1233 C.3     1  UNL1        0.1166
     22 N         140.8167  139.8820  169.9380 N.3     1  UNL1       -0.2935
     23 H         141.3199  139.0870  169.5441 H       1  UNL1        0.1236
     24 C         141.8017  141.0083  170.0442 C.3     1  UNL1        0.0543
     25 C         143.2108  140.9986  169.5301 C.3     1  UNL1        0.0157
     26 C         143.8305  142.3263  169.8513 C.3     1  UNL1        0.0014
     27 C         142.8044  143.1566  170.5639 C.3     1  UNL1        0.0014
     28 C         141.5505  142.3419  170.6831 C.3     1  UNL1        0.0157
@<TRIPOS>BOND
     1     7     8    1
     2     8     9   ar
     3     9    10   ar
     4    10    11   ar
     5    11    12   ar
     6    12     1    1
     7     1     2   ar
     8     2     3    1
     9     2     4   ar
    10     4    21    1
    11    21    22    1
    12    22    24    1
    13    24    25    1
    14    25    26    1
    15    26    27    1
    16    27    28    1
    17     4     5   ar
    18     5     6   ar
    19     6    14    1
    20    14    15   ar
    21    15    16   ar
    22    16    17   ar
    23    17    18   ar
    24    18    19   ar
    25    19    20    1
    26    12    13   ar
    27    13     8   ar
    28     6     1   ar
    29    19    14   ar
    30    28    24    1
    31    22    23    1
@<TRIPOS>MOLECULE
*****
 28 31 0 0 0
SMALL
GASTEIGER

@<TRIPOS>ATOM
      1 C         141.4975  140.4593  166.1581 C.ar    1  UNL1        0.0831
      2 C         142.7218  139.6388  165.8793 C.ar    1  UNL1        0.0125
      3 C         143.3546  138.6529  166.8160 C.3     1  UNL1        0.0340
      4 C         143.2022  139.9771  164.4991 C.ar    1  UNL1        0.0924
      5 N         142.2747  141.0069  163.9250 N.ar    1  UNL1       -0.1671
      6 N         141.2212  141.3048  164.9503 N.ar    1  UNL1       -0.2119
      7 C         140.8053  141.9753  171.0798 C.3     1  UNL1        0.0327
      8 C         140.3450  141.1961  169.8836 C.ar    1  UNL1       -0.0026
      9 C         139.0783  140.3956  169.9520 C.ar    1  UNL1        0.0946
     10 N         138.6180  139.6164  168.7558 N.ar    1  UNL1       -0.2426
     11 C         139.4244  139.6376  167.4912 C.ar    1  UNL1        0.1003
     12 C         140.6910  140.4381  167.4228 C.ar    1  UNL1        0.0363
     13 C         141.1514  141.2173  168.6190 C.ar    1  UNL1        0.0003
     14 C         140.0899  142.2776  164.7951 C.ar    1  UNL1        0.1743
     15 N         140.3077  143.7333  165.0840 N.ar    1  UNL1       -0.2243
     16 C         139.1764  144.7061  164.9288 C.ar    1  UNL1        0.1006
     17 C         137.8275  144.2232  164.4846 C.ar    1  UNL1        0.0217
     18 C         137.6099  142.7674  164.1956 C.ar    1  UNL1        0.0161
     19 C         138.7411  141.7947  164.3509 C.ar    1  UNL1        0.0934
     20 CL        138.5234  140.3389  164.0619 Cl      1  UNL1       -0.0790
     21 C         144.3997  139.3891  163.8135 C.3     1  UNL1        0.1166
     22 N         144.7659  139.8358  162.4292 N.3     1  UNL1       -0.2935
     23 H         145.7557  139.6238  162.3035 H       1  UNL1        0.1236
     24 C         144.0470  139.2660  161.2424 C.3     1  UNL1        0.0543
     25 C         143.5649  137.8529  161.0986 C.3     1  UNL1        0.0157
     26 C         142.9039  137.7228  159.7585 C.3     1  UNL1        0.0014
     27 C         142.9774  139.0555  159.0740 C.3     1  UNL1        0.0014
     28 C         143.6839  140.0093  159.9912 C.3     1  UNL1        0.0157
@<TRIPOS>BOND
     1     7     8    1
     2     8     9   ar
     3     9    10   ar
     4    10    11   ar
     5    11    12   ar
     6    12     1    1
     7     1     2   ar
     8     2     3    1
     9     2     4   ar
    10     4    21    1
    11    21    22    1
    12    22    24    1
    13    24    25    1
    14    25    26    1
    15    26    27    1
    16    27    28    1
    17     4     5   ar
    18     5     6   ar
    19     6    14    1
    20    14    15   ar
    21    15    16   ar
    22    16    17   ar
    23    17    18   ar
    24    18    19   ar
    25    19    20    1
    26    12    13   ar
    27    13     8   ar
    28     6     1   ar
    29    19    14   ar
    30    28    24    1
    31    22    23    1
@<TRIPOS>MOLECULE
*****
 28 31 0 0 0
SMALL
GASTEIGER

@<TRIPOS>ATOM
      1 C         141.7231  140.5210  165.8552 C.ar    1  UNL1        0.0831
      2 C         142.6684  139.4570  165.3816 C.ar    1  UNL1        0.0125
      3 C         143.4716  138.5390  166.2546 C.3     1  UNL1        0.0340
      4 C         142.6695  139.4721  163.8817 C.ar    1  UNL1        0.0924
      5 N         141.7248  140.5456  163.4283 N.ar    1  UNL1       -0.1671
      6 N         141.1400  141.1938  164.6481 N.ar    1  UNL1       -0.2119
      7 C         138.5634  140.2073  169.9684 C.3     1  UNL1        0.0327
      8 C         139.8352  140.6969  169.3417 C.ar    1  UNL1       -0.0026
      9 C         140.7990  141.5193  170.1447 C.ar    1  UNL1        0.0946
     10 N         142.0707  142.0089  169.5179 N.ar    1  UNL1       -0.2426
     11 C         142.3788  141.6761  168.0881 C.ar    1  UNL1        0.1003
     12 C         141.4151  140.8538  167.2851 C.ar    1  UNL1        0.0363
     13 C         140.1433  140.3642  167.9119 C.ar    1  UNL1        0.0003
     14 C         140.1464  142.3175  164.6587 C.ar    1  UNL1        0.1743
     15 N         140.6228  143.7398  164.6533 N.ar    1  UNL1       -0.2243
     16 C         139.6292  144.8635  164.6639 C.ar    1  UNL1        0.1006
     17 C         138.1593  144.5650  164.6800 C.ar    1  UNL1        0.0217
     18 C         137.6830  143.1426  164.6854 C.ar    1  UNL1        0.0161
     19 C         138.6765  142.0189  164.6748 C.ar    1  UNL1        0.0934
     20 CL        138.2001  140.5965  164.6803 Cl      1  UNL1       -0.0790
     21 C         143.4739  138.5720  162.9914 C.3     1  UNL1        0.1166
     22 N         142.7798  137.6150  162.0681 N.3     1  UNL1       -0.2935
     23 H         142.7448  136.7157  162.5482 H       1  UNL1        0.1236
     24 C         141.3871  137.9072  161.5938 C.3     1  UNL1        0.0543
     25 C         140.1222  137.6374  162.3536 C.3     1  UNL1        0.0157
     26 C         138.9681  138.0840  161.5058 C.3     1  UNL1        0.0014
     27 C         139.5198  138.6297  160.2221 C.3     1  UNL1        0.0014
     28 C         141.0148  138.5204  160.2765 C.3     1  UNL1        0.0157
@<TRIPOS>BOND
     1     7     8    1
     2     8     9   ar
     3     9    10   ar
     4    10    11   ar
     5    11    12   ar
     6    12     1    1
     7     1     2   ar
     8     2     3    1
     9     2     4   ar
    10     4    21    1
    11    21    22    1
    12    22    24    1
    13    24    25    1
    14    25    26    1
    15    26    27    1
    16    27    28    1
    17     4     5   ar
    18     5     6   ar
    19     6    14    1
    20    14    15   ar
    21    15    16   ar
    22    16    17   ar
    23    17    18   ar
    24    18    19   ar
    25    19    20    1
    26    12    13   ar
    27    13     8   ar
    28     6     1   ar
    29    19    14   ar
    30    28    24    1
    31    22    23    1
