@<TRIPOS>MOLECULE
*****
 40 44 0 0 0
SMALL
GASTEIGER

@<TRIPOS>ATOM
      1 C         139.9716  138.9855  158.9894 C.3     1  UNL1        0.0993
      2 N         141.2510  139.4458  158.3556 N.3     1  UNL1       -0.2690
      3 C         141.9710  140.6424  158.9029 C.3     1  UNL1        0.0724
      4 C         143.2502  141.1026  158.2691 C.3     1  UNL1        0.0175
      5 C         143.8095  140.3661  157.0880 C.3     1  UNL1        0.0055
      6 C         143.0894  139.1695  156.5408 C.3     1  UNL1        0.0175
      7 C         141.8102  138.7093  157.1746 C.3     1  UNL1        0.0724
      8 C         144.5296  141.5628  157.6353 C.3     1  UNL1        0.0193
      9 C         145.8088  142.0230  157.0015 C.3     1  UNL1        0.0958
     10 N         146.3680  141.2865  155.8205 N.3     1  UNL1       -0.1555
     11 C         145.6480  140.0899  155.2732 C.3     1  UNL1        0.0958
     12 C         144.3687  139.6296  155.9070 C.3     1  UNL1        0.0193
     13 S         147.6473  141.7467  155.1867 S.O2    1  UNL1        0.0648
     14 O         148.1332  142.2323  156.5201 O.2     1  UNL1       -0.1527
     15 O         147.1615  141.2612  153.8532 O.2     1  UNL1       -0.1527
     16 C         148.9266  142.2069  154.5530 C.ar    1  UNL1        0.1413
     17 C         148.8893  143.1540  153.3904 C.ar    1  UNL1        0.0231
     18 C         150.1686  143.6142  152.7566 C.ar    1  UNL1        0.0221
     19 C         151.4852  143.1274  153.2855 C.ar    1  UNL1        0.0990
     20 N         151.5224  142.1803  154.4482 N.ar    1  UNL1       -0.2409
     21 C         150.2431  141.7201  155.0819 C.ar    1  UNL1        0.1187
     22 C         140.4858  138.4915  162.8935 C.ar    1  UNL1        0.1411
     23 C         140.6770  138.3633  161.4112 C.ar    1  UNL1        0.0342
     24 C         139.7804  139.1137  160.4716 C.ar    1  UNL1       -0.0001
     25 C         138.6925  139.9925  161.0143 C.ar    1  UNL1        0.0342
     26 C         138.5013  140.1207  162.4965 C.ar    1  UNL1        0.1411
     27 C         139.3979  139.3702  163.4361 C.ar    1  UNL1        0.0679
     28 C         139.2067  139.4984  164.9183 C.ar    1  UNL1        0.0060
     29 C         138.2573  138.5837  165.6339 C.ar    1  UNL1        0.0025
     30 C         138.0661  138.7120  167.1162 C.ar    1  UNL1        0.0296
     31 C         138.8243  139.7548  167.8827 C.ar    1  UNL1        0.1401
     32 F         138.6331  139.8830  169.3649 F       1  UNL1       -0.2042
     33 C         139.7736  140.6695  167.1671 C.ar    1  UNL1        0.0296
     34 C         139.9649  140.5413  165.6849 C.ar    1  UNL1        0.0025
     35 O         141.3824  137.7410  163.8331 O.3     1  UNL1       -0.4754
     36 C         142.9946  138.4249  165.7522 C.3     1  UNL1        0.0512
     37 C         142.6731  138.3546  164.2888 C.3     1  UNL1        0.2055
     38 O         137.4135  140.9993  163.0391 O.3     1  UNL1       -0.4754
     39 C         137.6133  142.4844  163.1083 C.3     1  UNL1        0.2055
     40 C         137.7048  143.1676  164.4405 C.3     1  UNL1        0.0512
@<TRIPOS>BOND
     1    36    37    1
     2    37    35    1
     3    35    22    1
     4    22    23   ar
     5    23    24   ar
     6    24     1    1
     7     1     2    1
     8     2     3    1
     9     3     4    1
    10     4     5    1
    11     5     6    1
    12     6     7    1
    13     5     8    1
    14     8     9    1
    15     9    10    1
    16    10    13    1
    17    13    14    2
    18    13    15    2
    19    13    16    1
    20    16    17   ar
    21    17    18   ar
    22    18    19   ar
    23    19    20   ar
    24    20    21   ar
    25    10    11    1
    26    11    12    1
    27    24    25   ar
    28    25    26   ar
    29    26    38    1
    30    38    39    1
    31    39    40    1
    32    26    27   ar
    33    27    28    1
    34    28    29   ar
    35    29    30   ar
    36    30    31   ar
    37    31    32    1
    38    31    33   ar
    39    33    34   ar
    40    27    22   ar
    41    34    28   ar
    42     7     2    1
    43    21    16   ar
    44    12     5    1
@<TRIPOS>MOLECULE
*****
 40 44 0 0 0
SMALL
GASTEIGER

@<TRIPOS>ATOM
      1 C         139.9999  139.8226  160.7563 C.3     1  UNL1        0.0993
      2 N         141.1931  140.1751  159.9183 N.3     1  UNL1       -0.2690
      3 C         142.0063  141.3923  160.2458 C.3     1  UNL1        0.0724
      4 C         143.1995  141.7447  159.4079 C.3     1  UNL1        0.0175
      5 C         143.5794  140.8801  158.2425 C.3     1  UNL1        0.0055
      6 C         142.7662  139.6629  157.9151 C.3     1  UNL1        0.0175
      7 C         141.5731  139.3105  158.7530 C.3     1  UNL1        0.0724
      8 C         144.3927  142.0973  158.5699 C.3     1  UNL1        0.0193
      9 C         145.5858  142.4497  157.7320 C.3     1  UNL1        0.0958
     10 N         145.9657  141.5851  156.5667 N.3     1  UNL1       -0.1555
     11 C         145.1525  140.3679  156.2392 C.3     1  UNL1        0.0958
     12 C         143.9593  140.0154  157.0772 C.3     1  UNL1        0.0193
     13 S         147.1590  141.9376  155.7287 S.O2    1  UNL1        0.0648
     14 O         146.5401  141.2397  154.5540 O.2     1  UNL1       -0.1527
     15 O         147.7778  142.6354  156.9035 O.2     1  UNL1       -0.1527
     16 C         148.3521  142.2901  154.8908 C.ar    1  UNL1        0.1413
     17 C         149.6890  141.6823  155.1962 C.ar    1  UNL1        0.0231
     18 C         150.8822  142.0347  154.3583 C.ar    1  UNL1        0.0221
     19 C         150.7384  142.9950  153.2150 C.ar    1  UNL1        0.0990
     20 N         149.4015  143.6028  152.9096 N.ar    1  UNL1       -0.2409
     21 C         148.2083  143.2503  153.7475 C.ar    1  UNL1        0.1187
     22 C         141.0085  139.7850  164.5944 C.ar    1  UNL1        0.1411
     23 C         141.0097  139.4809  163.1255 C.ar    1  UNL1        0.0342
     24 C         139.9987  140.1267  162.2251 C.ar    1  UNL1       -0.0001
     25 C         138.9864  141.0766  162.7935 C.ar    1  UNL1        0.0342
     26 C         138.9852  141.3806  164.2624 C.ar    1  UNL1        0.1411
     27 C         139.9962  140.7349  165.1628 C.ar    1  UNL1        0.0679
     28 C         139.9950  141.0389  166.6316 C.ar    1  UNL1        0.0060
     29 C         139.4163  140.0517  167.6014 C.ar    1  UNL1        0.0025
     30 C         139.4151  140.3558  169.0703 C.ar    1  UNL1        0.0296
     31 C         139.9926  141.6471  169.5694 C.ar    1  UNL1        0.1401
     32 F         139.9914  141.9512  171.0382 F       1  UNL1       -0.2042
     33 C         140.5713  142.6343  168.5996 C.ar    1  UNL1        0.0296
     34 C         140.5725  142.3303  167.1307 C.ar    1  UNL1        0.0025
     35 O         142.0195  139.1392  165.4949 O.3     1  UNL1       -0.4754
     36 C         143.6265  141.1580  165.1914 C.3     1  UNL1        0.0512
     37 C         143.3762  139.7565  165.6636 C.3     1  UNL1        0.2055
     38 O         137.9730  142.3305  164.8308 O.3     1  UNL1       -0.4754
     39 C         137.9813  143.7720  164.4159 C.3     1  UNL1        0.2055
     40 C         138.6826  144.7922  165.2628 C.3     1  UNL1        0.0512
@<TRIPOS>BOND
     1    36    37    1
     2    37    35    1
     3    35    22    1
     4    22    23   ar
     5    23    24   ar
     6    24     1    1
     7     1     2    1
     8     2     3    1
     9     3     4    1
    10     4     5    1
    11     5     6    1
    12     6     7    1
    13     5     8    1
    14     8     9    1
    15     9    10    1
    16    10    13    1
    17    13    14    2
    18    13    15    2
    19    13    16    1
    20    16    17   ar
    21    17    18   ar
    22    18    19   ar
    23    19    20   ar
    24    20    21   ar
    25    10    11    1
    26    11    12    1
    27    24    25   ar
    28    25    26   ar
    29    26    38    1
    30    38    39    1
    31    39    40    1
    32    26    27   ar
    33    27    28    1
    34    28    29   ar
    35    29    30   ar
    36    30    31   ar
    37    31    32    1
    38    31    33   ar
    39    33    34   ar
    40    27    22   ar
    41    34    28   ar
    42     7     2    1
    43    21    16   ar
    44    12     5    1
@<TRIPOS>MOLECULE
*****
 40 44 0 0 0
SMALL
GASTEIGER

@<TRIPOS>ATOM
      1 C         139.9834  140.1451  160.5413 C.3     1  UNL1        0.0993
      2 N         141.2097  140.4483  159.7324 N.3     1  UNL1       -0.2690
      3 C         141.5896  139.5603  158.5848 C.3     1  UNL1        0.0724
      4 C         142.8159  139.8635  157.7759 C.3     1  UNL1        0.0175
      5 C         143.6622  141.0548  158.1146 C.3     1  UNL1        0.0055
      6 C         143.2822  141.9428  159.2622 C.3     1  UNL1        0.0175
      7 C         142.0560  141.6395  160.0711 C.3     1  UNL1        0.0724
      8 C         144.0422  140.1668  156.9669 C.3     1  UNL1        0.0193
      9 C         145.2684  140.4700  156.1581 C.3     1  UNL1        0.0958
     10 N         146.1147  141.6613  156.4968 N.3     1  UNL1       -0.1555
     11 C         145.7348  142.5493  157.6444 C.3     1  UNL1        0.0958
     12 C         144.5084  142.2460  158.4533 C.3     1  UNL1        0.0193
     13 S         147.3410  141.9645  155.6878 S.O2    1  UNL1        0.0648
     14 O         146.6682  141.4187  154.4634 O.2     1  UNL1       -0.1527
     15 O         148.0139  142.5102  156.9123 O.2     1  UNL1       -0.1527
     16 C         148.5672  142.2677  154.8789 C.ar    1  UNL1        0.1413
     17 C         148.4707  143.1581  153.6757 C.ar    1  UNL1        0.0231
     18 C         149.6969  143.4613  152.8667 C.ar    1  UNL1        0.0221
     19 C         151.0197  142.8741  153.2609 C.ar    1  UNL1        0.0990
     20 N         151.1162  141.9836  154.4642 N.ar    1  UNL1       -0.2409
     21 C         149.8900  141.6804  155.2732 C.ar    1  UNL1        0.1187
     22 C         138.9609  141.4744  164.1382 C.ar    1  UNL1        0.1411
     23 C         138.9547  141.2520  162.6547 C.ar    1  UNL1        0.0342
     24 C         139.9895  140.3675  162.0247 C.ar    1  UNL1       -0.0001
     25 C         141.0304  139.7054  162.8781 C.ar    1  UNL1        0.0342
     26 C         141.0365  139.9279  164.3615 C.ar    1  UNL1        0.1411
     27 C         140.0017  140.8124  164.9915 C.ar    1  UNL1        0.0679
     28 C         140.0079  141.0348  166.4749 C.ar    1  UNL1        0.0060
     29 C         139.4294  139.9976  167.3912 C.ar    1  UNL1        0.0025
     30 C         139.4355  140.2201  168.8746 C.ar    1  UNL1        0.0296
     31 C         140.0201  141.4797  169.4417 C.ar    1  UNL1        0.1401
     32 F         140.0262  141.7022  170.9251 F       1  UNL1       -0.2042
     33 C         140.5985  142.5169  168.5254 C.ar    1  UNL1        0.0296
     34 C         140.5924  142.2945  167.0420 C.ar    1  UNL1        0.0025
     35 O         137.9261  142.3589  164.7682 O.3     1  UNL1       -0.4754
     36 C         138.7592  144.7831  165.1917 C.3     1  UNL1        0.0512
     37 C         137.8885  143.8217  164.4383 C.3     1  UNL1        0.2055
     38 O         142.0774  139.2658  165.2148 O.3     1  UNL1       -0.4754
     39 C         143.3615  139.9786  165.5198 C.3     1  UNL1        0.2055
     40 C         143.6256  141.3329  164.9316 C.3     1  UNL1        0.0512
@<TRIPOS>BOND
     1    36    37    1
     2    37    35    1
     3    35    22    1
     4    22    23   ar
     5    23    24   ar
     6    24     1    1
     7     1     2    1
     8     2     3    1
     9     3     4    1
    10     4     5    1
    11     5     6    1
    12     6     7    1
    13     5     8    1
    14     8     9    1
    15     9    10    1
    16    10    13    1
    17    13    14    2
    18    13    15    2
    19    13    16    1
    20    16    17   ar
    21    17    18   ar
    22    18    19   ar
    23    19    20   ar
    24    20    21   ar
    25    10    11    1
    26    11    12    1
    27    24    25   ar
    28    25    26   ar
    29    26    38    1
    30    38    39    1
    31    39    40    1
    32    26    27   ar
    33    27    28    1
    34    28    29   ar
    35    29    30   ar
    36    30    31   ar
    37    31    32    1
    38    31    33   ar
    39    33    34   ar
    40    27    22   ar
    41    34    28   ar
    42     7     2    1
    43    21    16   ar
    44    12     5    1
@<TRIPOS>MOLECULE
*****
 40 44 0 0 0
SMALL
GASTEIGER

@<TRIPOS>ATOM
      1 C         141.2857  141.3229  160.0763 C.3     1  UNL1        0.0993
      2 N         142.5083  141.4320  159.2141 N.3     1  UNL1       -0.2690
      3 C         142.6572  140.5515  158.0090 C.3     1  UNL1        0.0724
      4 C         143.8798  140.6606  157.1468 C.3     1  UNL1        0.0175
      5 C         144.9535  141.6504  157.4898 C.3     1  UNL1        0.0055
      6 C         144.8046  142.5309  158.6950 C.3     1  UNL1        0.0175
      7 C         143.5820  142.4218  159.5571 C.3     1  UNL1        0.0724
      8 C         145.1024  140.7698  156.2846 C.3     1  UNL1        0.0193
      9 C         146.3250  140.8790  155.4225 C.3     1  UNL1        0.0958
     10 N         147.3987  141.8687  155.7655 N.3     1  UNL1       -0.1555
     11 C         147.2498  142.7492  156.9706 C.3     1  UNL1        0.0958
     12 C         146.0272  142.6401  157.8328 C.3     1  UNL1        0.0193
     13 S         148.6213  141.9778  154.9032 S.O2    1  UNL1        0.0648
     14 O         147.7524  142.1655  153.6950 O.2     1  UNL1       -0.1527
     15 O         149.4902  141.7902  156.1114 O.2     1  UNL1       -0.1527
     16 C         149.8438  142.0870  154.0410 C.ar    1  UNL1        0.1413
     17 C         149.9375  143.1687  153.0062 C.ar    1  UNL1        0.0231
     18 C         151.1601  143.2779  152.1439 C.ar    1  UNL1        0.0221
     19 C         152.2889  142.3053  152.3165 C.ar    1  UNL1        0.0990
     20 N         152.1952  141.2235  153.3515 N.ar    1  UNL1       -0.2409
     21 C         150.9726  141.1143  154.2137 C.ar    1  UNL1        0.1187
     22 C         141.1569  143.0016  163.6702 C.ar    1  UNL1        0.1411
     23 C         141.0459  142.8214  162.1851 C.ar    1  UNL1        0.0342
     24 C         141.3967  141.5031  161.5613 C.ar    1  UNL1       -0.0001
     25 C         141.8584  140.3650  162.4225 C.ar    1  UNL1        0.0342
     26 C         141.9693  140.5453  163.9075 C.ar    1  UNL1        0.1411
     27 C         141.6186  141.8635  164.5313 C.ar    1  UNL1        0.0679
     28 C         141.7296  142.0438  166.0163 C.ar    1  UNL1        0.0060
     29 C         143.0765  142.2237  166.6514 C.ar    1  UNL1        0.0025
     30 C         143.1874  142.4039  168.1364 C.ar    1  UNL1        0.0296
     31 C         141.9514  142.4042  168.9863 C.ar    1  UNL1        0.1401
     32 F         142.0624  142.5844  170.4712 F       1  UNL1       -0.2042
     33 C         140.6045  142.2243  168.3512 C.ar    1  UNL1        0.0296
     34 C         140.4935  142.0441  166.8662 C.ar    1  UNL1        0.0025
     35 O         140.8062  144.3198  164.2940 O.3     1  UNL1       -0.4754
     36 C         138.5992  144.9237  165.5248 C.3     1  UNL1        0.0512
     37 C         139.3907  144.8150  164.2553 C.3     1  UNL1        0.2055
     38 O         142.4310  139.4072  164.7687 O.3     1  UNL1       -0.4754
     39 C         143.8907  139.0707  164.8478 C.3     1  UNL1        0.2055
     40 C         144.9088  140.0070  164.2674 C.3     1  UNL1        0.0512
@<TRIPOS>BOND
     1    36    37    1
     2    37    35    1
     3    35    22    1
     4    22    23   ar
     5    23    24   ar
     6    24     1    1
     7     1     2    1
     8     2     3    1
     9     3     4    1
    10     4     5    1
    11     5     6    1
    12     6     7    1
    13     5     8    1
    14     8     9    1
    15     9    10    1
    16    10    13    1
    17    13    14    2
    18    13    15    2
    19    13    16    1
    20    16    17   ar
    21    17    18   ar
    22    18    19   ar
    23    19    20   ar
    24    20    21   ar
    25    10    11    1
    26    11    12    1
    27    24    25   ar
    28    25    26   ar
    29    26    38    1
    30    38    39    1
    31    39    40    1
    32    26    27   ar
    33    27    28    1
    34    28    29   ar
    35    29    30   ar
    36    30    31   ar
    37    31    32    1
    38    31    33   ar
    39    33    34   ar
    40    27    22   ar
    41    34    28   ar
    42     7     2    1
    43    21    16   ar
    44    12     5    1
@<TRIPOS>MOLECULE
*****
 40 44 0 0 0
SMALL
GASTEIGER

@<TRIPOS>ATOM
      1 C         141.2022  141.1765  160.2553 C.3     1  UNL1        0.0993
      2 N         142.4093  141.3070  159.3744 N.3     1  UNL1       -0.2690
      3 C         143.4467  142.3485  159.6732 C.3     1  UNL1        0.0724
      4 C         144.6537  142.4790  158.7923 C.3     1  UNL1        0.0175
      5 C         144.8234  141.5681  157.6127 C.3     1  UNL1        0.0055
      6 C         143.7861  140.5267  157.3139 C.3     1  UNL1        0.0175
      7 C         142.5790  140.3961  158.1948 C.3     1  UNL1        0.0724
      8 C         145.8609  142.6095  157.9114 C.3     1  UNL1        0.0193
      9 C         147.0679  142.7400  157.0305 C.3     1  UNL1        0.0958
     10 N         147.2376  141.8291  155.8509 N.3     1  UNL1       -0.1555
     11 C         146.2002  140.7877  155.5522 C.3     1  UNL1        0.0958
     12 C         144.9931  140.6572  156.4331 C.3     1  UNL1        0.0193
     13 S         148.4447  141.9597  154.9701 S.O2    1  UNL1        0.0648
     14 O         149.3343  141.8471  156.1725 O.2     1  UNL1       -0.1527
     15 O         147.5552  142.0722  153.7676 O.2     1  UNL1       -0.1527
     16 C         149.6518  142.0902  154.0893 C.ar    1  UNL1        0.1413
     17 C         149.6339  143.0398  152.9283 C.ar    1  UNL1        0.0231
     18 C         150.8410  143.1704  152.0474 C.ar    1  UNL1        0.0221
     19 C         152.0660  142.3514  152.3276 C.ar    1  UNL1        0.0990
     20 N         152.0839  141.4017  153.4887 N.ar    1  UNL1       -0.2409
     21 C         150.8768  141.2712  154.3695 C.ar    1  UNL1        0.1187
     22 C         141.8980  140.4784  164.0996 C.ar    1  UNL1        0.1411
     23 C         141.7735  140.2647  162.6201 C.ar    1  UNL1        0.0342
     24 C         141.3267  141.3901  161.7347 C.ar    1  UNL1       -0.0001
     25 C         141.0044  142.7292  162.3289 C.ar    1  UNL1        0.0342
     26 C         141.1290  142.9428  163.8084 C.ar    1  UNL1        0.1411
     27 C         141.5757  141.8174  164.6937 C.ar    1  UNL1        0.0679
     28 C         141.7002  142.0310  166.1732 C.ar    1  UNL1        0.0060
     29 C         140.4700  142.0814  167.0298 C.ar    1  UNL1        0.0025
     30 C         140.5945  142.2950  168.5094 C.ar    1  UNL1        0.0296
     31 C         141.9493  142.4583  169.1321 C.ar    1  UNL1        0.1401
     32 F         142.0738  142.6719  170.6116 F       1  UNL1       -0.2042
     33 C         143.1796  142.4079  168.2755 C.ar    1  UNL1        0.0296
     34 C         143.0551  142.1943  166.7960 C.ar    1  UNL1        0.0025
     35 O         142.3448  139.3529  164.9849 O.3     1  UNL1       -0.4754
     36 C         144.8220  139.8579  164.3860 C.3     1  UNL1        0.0512
     37 C         143.8007  139.0037  165.0770 C.3     1  UNL1        0.2055
     38 O         140.8067  144.2819  164.4025 O.3     1  UNL1       -0.4754
     39 C         139.4033  144.8088  164.3473 C.3     1  UNL1        0.2055
     40 C         138.2520  143.9148  164.7011 C.3     1  UNL1        0.0512
@<TRIPOS>BOND
     1    36    37    1
     2    37    35    1
     3    35    22    1
     4    22    23   ar
     5    23    24   ar
     6    24     1    1
     7     1     2    1
     8     2     3    1
     9     3     4    1
    10     4     5    1
    11     5     6    1
    12     6     7    1
    13     5     8    1
    14     8     9    1
    15     9    10    1
    16    10    13    1
    17    13    14    2
    18    13    15    2
    19    13    16    1
    20    16    17   ar
    21    17    18   ar
    22    18    19   ar
    23    19    20   ar
    24    20    21   ar
    25    10    11    1
    26    11    12    1
    27    24    25   ar
    28    25    26   ar
    29    26    38    1
    30    38    39    1
    31    39    40    1
    32    26    27   ar
    33    27    28    1
    34    28    29   ar
    35    29    30   ar
    36    30    31   ar
    37    31    32    1
    38    31    33   ar
    39    33    34   ar
    40    27    22   ar
    41    34    28   ar
    42     7     2    1
    43    21    16   ar
    44    12     5    1
@<TRIPOS>MOLECULE
*****
 40 44 0 0 0
SMALL
GASTEIGER

@<TRIPOS>ATOM
      1 C         140.7116  141.7229  160.2012 C.3     1  UNL1        0.0993
      2 N         140.9707  140.5050  159.3648 N.3     1  UNL1       -0.2690
      3 C         139.9676  140.0743  158.3361 C.3     1  UNL1        0.0724
      4 C         140.2268  138.8564  157.4998 C.3     1  UNL1        0.0175
      5 C         141.4891  138.0692  157.6921 C.3     1  UNL1        0.0055
      6 C         142.4922  138.4999  158.7208 C.3     1  UNL1        0.0175
      7 C         142.2330  139.7178  159.5571 C.3     1  UNL1        0.0724
      8 C         140.4860  137.6384  156.6634 C.3     1  UNL1        0.0193
      9 C         140.7452  136.4205  155.8270 C.3     1  UNL1        0.0958
     10 N         142.0075  135.6334  156.0194 N.3     1  UNL1       -0.1555
     11 C         143.0106  136.0641  157.0480 C.3     1  UNL1        0.0958
     12 C         142.7514  137.2820  157.8845 C.3     1  UNL1        0.0193
     13 S         142.2667  134.4154  155.1829 S.O2    1  UNL1        0.0648
     14 O         142.3335  135.2734  153.9544 O.2     1  UNL1       -0.1527
     15 O         142.1998  133.5574  156.4115 O.2     1  UNL1       -0.1527
     16 C         142.5258  133.1976  154.3465 C.ar    1  UNL1        0.1413
     17 C         141.9488  133.0996  152.9655 C.ar    1  UNL1        0.0231
     18 C         142.2080  131.8817  152.1290 C.ar    1  UNL1        0.0221
     19 C         143.0441  130.7618  152.6736 C.ar    1  UNL1        0.0990
     20 N         143.6211  130.8598  154.0548 N.ar    1  UNL1       -0.2409
     21 C         143.3620  132.0777  154.8912 C.ar    1  UNL1        0.1187
     22 C         139.1832  141.9808  163.8547 C.ar    1  UNL1        0.1411
     23 C         139.3303  142.1097  162.3674 C.ar    1  UNL1        0.0342
     24 C         140.5644  141.5940  161.6884 C.ar    1  UNL1       -0.0001
     25 C         141.6513  140.9494  162.4966 C.ar    1  UNL1        0.0342
     26 C         141.5041  140.8205  163.9837 C.ar    1  UNL1        0.1411
     27 C         140.2700  141.3362  164.6628 C.ar    1  UNL1        0.0679
     28 C         140.1229  141.2073  166.1499 C.ar    1  UNL1        0.0060
     29 C         140.6926  142.2599  167.0540 C.ar    1  UNL1        0.0025
     30 C         140.5454  142.1310  168.5413 C.ar    1  UNL1        0.0296
     31 C         139.8285  140.9494  169.1243 C.ar    1  UNL1        0.1401
     32 F         139.6813  140.8205  170.6115 F       1  UNL1       -0.2042
     33 C         139.2587  139.8968  168.2202 C.ar    1  UNL1        0.0296
     34 C         139.4059  140.0257  166.7331 C.ar    1  UNL1        0.0025
     35 O         137.9491  142.4965  164.5337 O.3     1  UNL1       -0.4754
     36 C         138.8320  144.8546  165.1741 C.3     1  UNL1        0.0512
     37 C         137.7284  143.9743  164.6671 C.3     1  UNL1        0.2055
     38 O         142.5910  140.1758  164.7918 O.3     1  UNL1       -0.4754
     39 C         142.7803  138.6886  164.7430 C.3     1  UNL1        0.2055
     40 C         141.5864  137.7810  164.7182 C.3     1  UNL1        0.0512
@<TRIPOS>BOND
     1    36    37    1
     2    37    35    1
     3    35    22    1
     4    22    23   ar
     5    23    24   ar
     6    24     1    1
     7     1     2    1
     8     2     3    1
     9     3     4    1
    10     4     5    1
    11     5     6    1
    12     6     7    1
    13     5     8    1
    14     8     9    1
    15     9    10    1
    16    10    13    1
    17    13    14    2
    18    13    15    2
    19    13    16    1
    20    16    17   ar
    21    17    18   ar
    22    18    19   ar
    23    19    20   ar
    24    20    21   ar
    25    10    11    1
    26    11    12    1
    27    24    25   ar
    28    25    26   ar
    29    26    38    1
    30    38    39    1
    31    39    40    1
    32    26    27   ar
    33    27    28    1
    34    28    29   ar
    35    29    30   ar
    36    30    31   ar
    37    31    32    1
    38    31    33   ar
    39    33    34   ar
    40    27    22   ar
    41    34    28   ar
    42     7     2    1
    43    21    16   ar
    44    12     5    1
@<TRIPOS>MOLECULE
*****
 40 44 0 0 0
SMALL
GASTEIGER

@<TRIPOS>ATOM
      1 C         140.4443  141.6239  160.0645 C.3     1  UNL1        0.0993
      2 N         140.7457  140.4151  159.2290 N.3     1  UNL1       -0.2690
      3 C         142.0685  139.7210  159.3639 C.3     1  UNL1        0.0724
      4 C         142.3698  138.5122  158.5284 C.3     1  UNL1        0.0175
      5 C         141.3483  137.9976  157.5580 C.3     1  UNL1        0.0055
      6 C         140.0255  138.6917  157.4231 C.3     1  UNL1        0.0175
      7 C         139.7242  139.9005  158.2586 C.3     1  UNL1        0.0724
      8 C         142.6712  137.3034  157.6929 C.3     1  UNL1        0.0193
      9 C         142.9725  136.0947  156.8574 C.3     1  UNL1        0.0958
     10 N         141.9510  135.5801  155.8870 N.3     1  UNL1       -0.1555
     11 C         140.6282  136.2742  155.7521 C.3     1  UNL1        0.0958
     12 C         140.3268  137.4830  156.5876 C.3     1  UNL1        0.0193
     13 S         142.2524  134.3713  155.0515 S.O2    1  UNL1        0.0648
     14 O         142.0186  135.1739  153.8060 O.2     1  UNL1       -0.1527
     15 O         142.4862  133.5686  156.2969 O.2     1  UNL1       -0.1527
     16 C         142.5538  133.1625  154.2159 C.ar    1  UNL1        0.1413
     17 C         143.3817  132.0471  154.7818 C.ar    1  UNL1        0.0231
     18 C         143.6832  130.8383  153.9463 C.ar    1  UNL1        0.0221
     19 C         143.1565  130.7450  152.5449 C.ar    1  UNL1        0.0990
     20 N         142.3285  131.8605  151.9790 N.ar    1  UNL1       -0.2409
     21 C         142.0271  133.0692  152.8145 C.ar    1  UNL1        0.1187
     22 C         141.2979  140.6739  163.8221 C.ar    1  UNL1        0.1411
     23 C         141.4104  140.8013  162.3317 C.ar    1  UNL1        0.0342
     24 C         140.3318  141.4965  161.5548 C.ar    1  UNL1       -0.0001
     25 C         139.1407  142.0642  162.2684 C.ar    1  UNL1        0.0342
     26 C         139.0283  141.9367  163.7587 C.ar    1  UNL1        0.1411
     27 C         140.1069  141.2416  164.5355 C.ar    1  UNL1        0.0679
     28 C         139.9944  141.1142  166.0258 C.ar    1  UNL1        0.0060
     29 C         139.2452  139.9613  166.6256 C.ar    1  UNL1        0.0025
     30 C         139.1328  139.8339  168.1160 C.ar    1  UNL1        0.0296
     31 C         139.7695  140.8593  169.0066 C.ar    1  UNL1        0.1401
     32 F         139.6570  140.7319  170.4969 F       1  UNL1       -0.2042
     33 C         140.5187  142.0122  168.4068 C.ar    1  UNL1        0.0296
     34 C         140.6311  142.1396  166.9165 C.ar    1  UNL1        0.0025
     35 O         142.3764  139.9787  164.5989 O.3     1  UNL1       -0.4754
     36 C         141.3242  137.6033  164.6173 C.3     1  UNL1        0.0512
     37 C         142.5290  138.4895  164.5027 C.3     1  UNL1        0.2055
     38 O         137.8373  142.5045  164.4722 O.3     1  UNL1       -0.4754
     39 C         137.7024  143.9887  164.6429 C.3     1  UNL1        0.2055
     40 C         138.8951  144.8101  165.0336 C.3     1  UNL1        0.0512
@<TRIPOS>BOND
     1    36    37    1
     2    37    35    1
     3    35    22    1
     4    22    23   ar
     5    23    24   ar
     6    24     1    1
     7     1     2    1
     8     2     3    1
     9     3     4    1
    10     4     5    1
    11     5     6    1
    12     6     7    1
    13     5     8    1
    14     8     9    1
    15     9    10    1
    16    10    13    1
    17    13    14    2
    18    13    15    2
    19    13    16    1
    20    16    17   ar
    21    17    18   ar
    22    18    19   ar
    23    19    20   ar
    24    20    21   ar
    25    10    11    1
    26    11    12    1
    27    24    25   ar
    28    25    26   ar
    29    26    38    1
    30    38    39    1
    31    39    40    1
    32    26    27   ar
    33    27    28    1
    34    28    29   ar
    35    29    30   ar
    36    30    31   ar
    37    31    32    1
    38    31    33   ar
    39    33    34   ar
    40    27    22   ar
    41    34    28   ar
    42     7     2    1
    43    21    16   ar
    44    12     5    1
@<TRIPOS>MOLECULE
*****
 40 44 0 0 0
SMALL
GASTEIGER

@<TRIPOS>ATOM
      1 C         139.7865  142.0147  160.2280 C.3     1  UNL1        0.0993
      2 N         140.1752  140.8074  159.4272 N.3     1  UNL1       -0.2690
      3 C         141.5412  140.2091  159.5874 C.3     1  UNL1        0.0724
      4 C         141.9299  139.0018  158.7866 C.3     1  UNL1        0.0175
      5 C         140.9524  138.3928  157.8255 C.3     1  UNL1        0.0055
      6 C         139.5863  138.9911  157.6652 C.3     1  UNL1        0.0175
      7 C         139.1977  140.1984  158.4661 C.3     1  UNL1        0.0724
      8 C         142.3185  137.7944  157.9858 C.3     1  UNL1        0.0193
      9 C         142.7072  136.5871  157.1849 C.3     1  UNL1        0.0958
     10 N         141.7297  135.9782  156.2238 N.3     1  UNL1       -0.1555
     11 C         140.3636  136.5765  156.0636 C.3     1  UNL1        0.0958
     12 C         139.9749  137.7839  156.8644 C.3     1  UNL1        0.0193
     13 S         142.1184  134.7708  155.4230 S.O2    1  UNL1        0.0648
     14 O         142.6108  134.1012  156.6716 O.2     1  UNL1       -0.1527
     15 O         141.6259  135.4404  154.1744 O.2     1  UNL1       -0.1527
     16 C         142.5070  133.5635  154.6222 C.ar    1  UNL1        0.1413
     17 C         142.0039  133.4007  153.2186 C.ar    1  UNL1        0.0231
     18 C         142.3925  132.1934  152.4177 C.ar    1  UNL1        0.0221
     19 C         143.2844  131.1488  153.0206 C.ar    1  UNL1        0.0990
     20 N         143.7876  131.3116  154.4243 N.ar    1  UNL1       -0.2409
     21 C         143.3989  132.5189  155.2251 C.ar    1  UNL1        0.1187
     22 C         140.1619  141.0735  164.0651 C.ar    1  UNL1        0.1411
     23 C         139.7936  140.9858  162.6136 C.ar    1  UNL1        0.0342
     24 C         140.1548  142.1024  161.6794 C.ar    1  UNL1       -0.0001
     25 C         140.8843  143.3067  162.1967 C.ar    1  UNL1        0.0342
     26 C         141.2526  143.3943  163.6481 C.ar    1  UNL1        0.1411
     27 C         140.8914  142.2777  164.5823 C.ar    1  UNL1        0.0679
     28 C         141.2597  142.3654  166.0337 C.ar    1  UNL1        0.0060
     29 C         140.2452  142.8249  167.0385 C.ar    1  UNL1        0.0025
     30 C         140.6135  142.9126  168.4900 C.ar    1  UNL1        0.0296
     31 C         141.9963  142.5406  168.9366 C.ar    1  UNL1        0.1401
     32 F         142.3646  142.6283  170.3880 F       1  UNL1       -0.2042
     33 C         143.0108  142.0811  167.9318 C.ar    1  UNL1        0.0296
     34 C         142.6425  141.9934  166.4804 C.ar    1  UNL1        0.0025
     35 O         139.8007  139.9568  164.9993 O.3     1  UNL1       -0.4754
     36 C         138.0155  138.9371  166.5877 C.3     1  UNL1        0.0512
     37 C         138.3634  139.7054  165.3473 C.3     1  UNL1        0.2055
     38 O         141.9821  144.5986  164.1654 O.3     1  UNL1       -0.4754
     39 C         143.4784  144.6621  164.0821 C.3     1  UNL1        0.2055
     40 C         144.1623  144.5223  162.7544 C.3     1  UNL1        0.0512
@<TRIPOS>BOND
     1    36    37    1
     2    37    35    1
     3    35    22    1
     4    22    23   ar
     5    23    24   ar
     6    24     1    1
     7     1     2    1
     8     2     3    1
     9     3     4    1
    10     4     5    1
    11     5     6    1
    12     6     7    1
    13     5     8    1
    14     8     9    1
    15     9    10    1
    16    10    13    1
    17    13    14    2
    18    13    15    2
    19    13    16    1
    20    16    17   ar
    21    17    18   ar
    22    18    19   ar
    23    19    20   ar
    24    20    21   ar
    25    10    11    1
    26    11    12    1
    27    24    25   ar
    28    25    26   ar
    29    26    38    1
    30    38    39    1
    31    39    40    1
    32    26    27   ar
    33    27    28    1
    34    28    29   ar
    35    29    30   ar
    36    30    31   ar
    37    31    32    1
    38    31    33   ar
    39    33    34   ar
    40    27    22   ar
    41    34    28   ar
    42     7     2    1
    43    21    16   ar
    44    12     5    1
@<TRIPOS>MOLECULE
*****
 40 44 0 0 0
SMALL
GASTEIGER

@<TRIPOS>ATOM
      1 C         140.3945  140.0312  160.5421 C.3     1  UNL1        0.0993
      2 N         140.2783  141.2594  159.6888 N.3     1  UNL1       -0.2690
      3 C         140.6600  142.5987  160.2462 C.3     1  UNL1        0.0724
      4 C         140.5438  143.8269  159.3930 C.3     1  UNL1        0.0175
      5 C         140.0460  143.7158  157.9824 C.3     1  UNL1        0.0055
      6 C         139.6643  142.3766  157.4250 C.3     1  UNL1        0.0175
      7 C         139.7805  141.1484  158.2782 C.3     1  UNL1        0.0724
      8 C         140.4277  145.0551  158.5398 C.3     1  UNL1        0.0193
      9 C         140.3115  146.2833  157.6866 C.3     1  UNL1        0.0958
     10 N         139.8137  146.1723  156.2760 N.3     1  UNL1       -0.1555
     11 C         139.4320  144.8331  155.7186 C.3     1  UNL1        0.0958
     12 C         139.5481  143.6048  156.5718 C.3     1  UNL1        0.0193
     13 S         139.6975  147.4006  155.4228 S.O2    1  UNL1        0.0648
     14 O         138.7881  148.0218  156.4410 O.2     1  UNL1       -0.1527
     15 O         140.6069  146.7793  154.4045 O.2     1  UNL1       -0.1527
     16 C         139.5814  148.6288  154.5696 C.ar    1  UNL1        0.1413
     17 C         139.0195  149.8935  155.1483 C.ar    1  UNL1        0.0231
     18 C         138.9033  151.1218  154.2951 C.ar    1  UNL1        0.0221
     19 C         139.3490  151.0854  152.8633 C.ar    1  UNL1        0.0990
     20 N         139.9108  149.8206  152.2847 N.ar    1  UNL1       -0.2409
     21 C         140.0270  148.5924  153.1378 C.ar    1  UNL1        0.1187
     22 C         140.2364  140.5917  164.4677 C.ar    1  UNL1        0.1411
     23 C         139.8094  140.4718  163.0347 C.ar    1  UNL1        0.0342
     24 C         140.8214  140.1510  161.9750 C.ar    1  UNL1       -0.0001
     25 C         142.2603  139.9499  162.3483 C.ar    1  UNL1        0.0342
     26 C         142.6872  140.0697  163.7812 C.ar    1  UNL1        0.1411
     27 C         141.6752  140.3906  164.8409 C.ar    1  UNL1        0.0679
     28 C         142.1021  140.5104  166.2739 C.ar    1  UNL1        0.0060
     29 C         142.1443  139.2924  167.1483 C.ar    1  UNL1        0.0025
     30 C         142.5712  139.4122  168.5813 C.ar    1  UNL1        0.0296
     31 C         142.9559  140.7501  169.1398 C.ar    1  UNL1        0.1401
     32 F         143.3828  140.8699  170.5728 F       1  UNL1       -0.2042
     33 C         142.9138  141.9682  168.2654 C.ar    1  UNL1        0.0296
     34 C         142.4869  141.8484  166.8325 C.ar    1  UNL1        0.0025
     35 O         139.2245  140.9125  165.5275 O.3     1  UNL1       -0.4754
     36 C         138.3146  138.7091  166.5605 C.3     1  UNL1        0.0512
     37 C         138.0844  139.9723  165.7851 C.3     1  UNL1        0.2055
     38 O         144.1260  139.8687  164.1544 O.3     1  UNL1       -0.4754
     39 C         145.1640  140.8496  163.6955 C.3     1  UNL1        0.2055
     40 C         145.0946  142.2794  164.1433 C.3     1  UNL1        0.0512
@<TRIPOS>BOND
     1    36    37    1
     2    37    35    1
     3    35    22    1
     4    22    23   ar
     5    23    24   ar
     6    24     1    1
     7     1     2    1
     8     2     3    1
     9     3     4    1
    10     4     5    1
    11     5     6    1
    12     6     7    1
    13     5     8    1
    14     8     9    1
    15     9    10    1
    16    10    13    1
    17    13    14    2
    18    13    15    2
    19    13    16    1
    20    16    17   ar
    21    17    18   ar
    22    18    19   ar
    23    19    20   ar
    24    20    21   ar
    25    10    11    1
    26    11    12    1
    27    24    25   ar
    28    25    26   ar
    29    26    38    1
    30    38    39    1
    31    39    40    1
    32    26    27   ar
    33    27    28    1
    34    28    29   ar
    35    29    30   ar
    36    30    31   ar
    37    31    32    1
    38    31    33   ar
    39    33    34   ar
    40    27    22   ar
    41    34    28   ar
    42     7     2    1
    43    21    16   ar
    44    12     5    1
