@<TRIPOS>MOLECULE
*****
 35 39 0 0 0
SMALL
GASTEIGER

@<TRIPOS>ATOM
      1 C         144.2733  141.6217  158.3637 C.3     1  UNL1        0.0666
      2 C         144.0345  142.6466  159.4327 C.3     1  UNL1        0.0294
      3 C         144.8105  142.5877  160.7151 C.3     1  UNL1        0.0730
      4 C         139.6008  140.0830  170.2991 C.3     1  UNL1        0.0950
      5 C         140.2990  140.4187  169.0146 C.ar    1  UNL1        0.2062
      6 N         141.5239  139.7423  168.4740 N.ar    1  UNL1       -0.2121
      7 C         141.8768  140.3952  167.1706 C.ar    1  UNL1        0.1182
      8 C         142.9848  140.1459  166.1907 C.ar    1  UNL1        0.0178
      9 C         143.0861  140.9767  164.9458 C.ar    1  UNL1       -0.0230
     10 C         142.0795  142.0566  164.6808 C.ar    1  UNL1       -0.0216
     11 C         140.9714  142.3059  165.6606 C.ar    1  UNL1        0.0346
     12 C         140.8701  141.4752  166.9055 C.ar    1  UNL1        0.1640
     13 O         139.8950  141.4897  168.0453 O.2     1  UNL1       -0.4384
     14 C         141.9976  142.9924  163.5113 C.3     1  UNL1        0.0434
     15 C         142.9024  143.0793  162.3180 C.3     1  UNL1        0.0768
     16 N         144.1123  142.2520  161.9995 N.3     1  UNL1       -0.2720
     17 C         144.7164  141.1333  162.7956 C.3     1  UNL1        0.0768
     18 C         144.2597  140.5657  164.1068 C.3     1  UNL1        0.0434
     19 S         143.4585  140.3627  158.3364 S.3     1  UNL1       -0.0756
     20 C         143.1626  139.6330  159.6131 C.ar    1  UNL1        0.1932
     21 N         144.0165  138.5708  160.2398 N.ar    1  UNL1       -0.1221
     22 N         143.3425  138.1187  161.5013 N.ar    1  UNL1       -0.1282
     23 C         142.0721  138.9014  161.6542 C.ar    1  UNL1        0.1668
     24 N         141.9609  139.8373  160.4873 N.ar    1  UNL1       -0.2884
     25 C         140.8441  140.8072  160.2382 C.3     1  UNL1        0.1340
     26 C         141.0860  138.7711  162.7770 C.ar    1  UNL1        0.0359
     27 C         139.9750  139.7688  162.9190 C.ar    1  UNL1        0.0030
     28 C         138.9889  139.6385  164.0417 C.ar    1  UNL1        0.0039
     29 C         139.1137  138.5106  165.0225 C.ar    1  UNL1        0.0714
     30 C         140.2248  137.5129  164.8806 C.ar    1  UNL1        0.0039
     31 C         141.2109  137.6431  163.7578 C.ar    1  UNL1        0.0030
     32 C         138.1276  138.3803  166.1453 C.3     1  UNL1        0.4186
     33 F         137.1415  138.2500  167.2681 F       1  UNL1       -0.1659
     34 F         138.2728  136.8880  166.0996 F       1  UNL1       -0.1659
     35 F         137.9825  139.8725  166.1910 F       1  UNL1       -0.1659
@<TRIPOS>BOND
     1     4     5    1
     2     5     6   ar
     3     6     7   ar
     4     7     8   ar
     5     8     9   ar
     6     9    10   ar
     7    10    11   ar
     8    11    12   ar
     9    12    13   ar
    10    10    14    1
    11    14    15    1
    12    15    16    1
    13    16     3    1
    14     3     2    1
    15     2     1    1
    16     1    19    1
    17    19    20    1
    18    20    21   ar
    19    21    22   ar
    20    22    23   ar
    21    23    26    1
    22    26    27   ar
    23    27    28   ar
    24    28    29   ar
    25    29    32    1
    26    32    33    1
    27    32    34    1
    28    32    35    1
    29    29    30   ar
    30    30    31   ar
    31    23    24   ar
    32    24    25    1
    33    16    17    1
    34    17    18    1
    35    13     5   ar
    36    24    20   ar
    37    12     7   ar
    38    31    26   ar
    39    18     9    1
@<TRIPOS>MOLECULE
*****
 35 39 0 0 0
SMALL
GASTEIGER

@<TRIPOS>ATOM
      1 C         143.3543  140.5836  157.3442 C.3     1  UNL1        0.0666
      2 C         144.1708  141.1434  158.4711 C.3     1  UNL1        0.0294
      3 C         143.5605  142.1310  159.4211 C.3     1  UNL1        0.0730
      4 C         141.7275  139.2469  170.0790 C.3     1  UNL1        0.0950
      5 C         141.9732  139.6334  168.6506 C.ar    1  UNL1        0.2062
      6 N         141.1229  140.5556  167.8279 N.ar    1  UNL1       -0.2121
      7 C         141.7365  140.6577  166.4630 C.ar    1  UNL1        0.1182
      8 C         141.3345  141.4220  165.2365 C.ar    1  UNL1        0.0178
      9 C         142.1620  141.3272  163.9890 C.ar    1  UNL1       -0.0230
     10 C         143.3914  140.4682  163.9680 C.ar    1  UNL1       -0.0216
     11 C         143.7934  139.7039  165.1945 C.ar    1  UNL1        0.0346
     12 C         142.9660  139.7987  166.4420 C.ar    1  UNL1        0.1640
     13 O         143.1122  139.1656  167.7940 O.2     1  UNL1       -0.4384
     14 C         144.3501  140.2348  162.8382 C.3     1  UNL1        0.0434
     15 C         144.3160  140.8028  161.4502 C.3     1  UNL1        0.0768
     16 N         143.3149  141.7444  160.8495 N.3     1  UNL1       -0.2720
     17 C         142.1005  142.3507  161.4881 C.3     1  UNL1        0.0768
     18 C         141.5875  142.1650  162.8854 C.3     1  UNL1        0.0434
     19 S         142.4746  139.3909  157.5757 S.3     1  UNL1       -0.0756
     20 C         142.3391  138.8153  158.9542 C.ar    1  UNL1        0.1932
     21 N         143.2627  137.8174  159.5877 N.ar    1  UNL1       -0.1221
     22 N         142.7507  137.5218  160.9663 N.ar    1  UNL1       -0.1282
     23 C         141.5106  138.3370  161.1848 C.ar    1  UNL1        0.1668
     24 N         141.2563  139.1364  159.9413 N.ar    1  UNL1       -0.2884
     25 C         140.1188  140.0896  159.7232 C.3     1  UNL1        0.1340
     26 C         140.6721  138.3504  162.4285 C.ar    1  UNL1        0.0359
     27 C         139.4348  139.1962  162.4897 C.ar    1  UNL1        0.0030
     28 C         138.5963  139.2096  163.7334 C.ar    1  UNL1        0.0039
     29 C         138.9951  138.3773  164.9158 C.ar    1  UNL1        0.0714
     30 C         140.2324  137.5316  164.8546 C.ar    1  UNL1        0.0039
     31 C         141.0709  137.5181  163.6109 C.ar    1  UNL1        0.0030
     32 C         138.1566  138.3908  166.1595 C.3     1  UNL1        0.4186
     33 F         137.3181  138.4042  167.4032 F       1  UNL1       -0.1659
     34 F         138.0736  136.8936  166.1198 F       1  UNL1       -0.1659
     35 F         138.2395  139.8879  166.1993 F       1  UNL1       -0.1659
@<TRIPOS>BOND
     1     4     5    1
     2     5     6   ar
     3     6     7   ar
     4     7     8   ar
     5     8     9   ar
     6     9    10   ar
     7    10    11   ar
     8    11    12   ar
     9    12    13   ar
    10    10    14    1
    11    14    15    1
    12    15    16    1
    13    16     3    1
    14     3     2    1
    15     2     1    1
    16     1    19    1
    17    19    20    1
    18    20    21   ar
    19    21    22   ar
    20    22    23   ar
    21    23    26    1
    22    26    27   ar
    23    27    28   ar
    24    28    29   ar
    25    29    32    1
    26    32    33    1
    27    32    34    1
    28    32    35    1
    29    29    30   ar
    30    30    31   ar
    31    23    24   ar
    32    24    25    1
    33    16    17    1
    34    17    18    1
    35    13     5   ar
    36    24    20   ar
    37    12     7   ar
    38    31    26   ar
    39    18     9    1
@<TRIPOS>MOLECULE
*****
 35 39 0 0 0
SMALL
GASTEIGER

@<TRIPOS>ATOM
      1 C         140.2528  145.3042  159.3896 C.3     1  UNL1        0.0666
      2 C         140.9112  145.7704  160.6542 C.3     1  UNL1        0.0294
      3 C         140.1307  145.8132  161.9345 C.3     1  UNL1        0.0730
      4 C         142.5085  138.6296  170.1814 C.3     1  UNL1        0.0950
      5 C         142.1898  139.5924  169.0761 C.ar    1  UNL1        0.2062
      6 N         140.8428  140.1839  168.7831 N.ar    1  UNL1       -0.2121
      7 C         140.9828  141.0897  167.5957 C.ar    1  UNL1        0.1182
      8 C         139.9900  141.9393  166.8590 C.ar    1  UNL1        0.0178
      9 C         140.4308  142.7572  165.6813 C.ar    1  UNL1       -0.0230
     10 C         141.8641  142.7256  165.2406 C.ar    1  UNL1       -0.0216
     11 C         142.8569  141.8761  165.9773 C.ar    1  UNL1        0.0346
     12 C         142.4162  141.0581  167.1549 C.ar    1  UNL1        0.1640
     13 O         143.1622  140.1327  168.0698 O.2     1  UNL1       -0.4384
     14 C         142.5088  143.4586  164.1016 C.3     1  UNL1        0.0434
     15 C         141.8791  144.4043  163.1221 C.3     1  UNL1        0.0768
     16 N         140.4494  144.8504  163.0398 N.3     1  UNL1       -0.2720
     17 C         139.2962  144.4612  163.9165 C.3     1  UNL1        0.0768
     18 C         139.2879  143.5296  165.0921 C.3     1  UNL1        0.0434
     19 S         140.3273  143.8594  158.9939 S.3     1  UNL1       -0.0756
     20 C         140.6342  142.8142  160.0251 C.ar    1  UNL1        0.1932
     21 N         141.9638  142.1553  160.2440 N.ar    1  UNL1       -0.1221
     22 N         141.8168  141.1782  161.3726 N.ar    1  UNL1       -0.1282
     23 C         140.3962  141.2333  161.8512 C.ar    1  UNL1        0.1668
     24 N         139.6653  142.2443  161.0183 N.ar    1  UNL1       -0.2884
     25 C         138.2194  142.6196  161.1549 C.3     1  UNL1        0.1340
     26 C         139.8095  140.4200  162.9667 C.ar    1  UNL1        0.0359
     27 C         138.3724  140.6054  163.3545 C.ar    1  UNL1        0.0030
     28 C         137.7857  139.7921  164.4701 C.ar    1  UNL1        0.0039
     29 C         138.6361  138.7936  165.1979 C.ar    1  UNL1        0.0714
     30 C         140.0732  138.6083  164.8101 C.ar    1  UNL1        0.0039
     31 C         140.6599  139.4215  163.6945 C.ar    1  UNL1        0.0030
     32 C         138.0494  137.9803  166.3134 C.3     1  UNL1        0.4186
     33 F         137.4627  137.1671  167.4289 F       1  UNL1       -0.1659
     34 F         137.5735  139.2373  166.9795 F       1  UNL1       -0.1659
     35 F         138.5252  136.7234  165.6473 F       1  UNL1       -0.1659
@<TRIPOS>BOND
     1     4     5    1
     2     5     6   ar
     3     6     7   ar
     4     7     8   ar
     5     8     9   ar
     6     9    10   ar
     7    10    11   ar
     8    11    12   ar
     9    12    13   ar
    10    10    14    1
    11    14    15    1
    12    15    16    1
    13    16     3    1
    14     3     2    1
    15     2     1    1
    16     1    19    1
    17    19    20    1
    18    20    21   ar
    19    21    22   ar
    20    22    23   ar
    21    23    26    1
    22    26    27   ar
    23    27    28   ar
    24    28    29   ar
    25    29    32    1
    26    32    33    1
    27    32    34    1
    28    32    35    1
    29    29    30   ar
    30    30    31   ar
    31    23    24   ar
    32    24    25    1
    33    16    17    1
    34    17    18    1
    35    13     5   ar
    36    24    20   ar
    37    12     7   ar
    38    31    26   ar
    39    18     9    1
@<TRIPOS>MOLECULE
*****
 35 39 0 0 0
SMALL
GASTEIGER

@<TRIPOS>ATOM
      1 C         141.5279  145.1470  159.2966 C.3     1  UNL1        0.0666
      2 C         142.0382  143.7798  158.9498 C.3     1  UNL1        0.0294
      3 C         143.2541  143.2357  159.6394 C.3     1  UNL1        0.0730
      4 C         142.5209  139.5143  170.1695 C.3     1  UNL1        0.0950
      5 C         142.6192  140.0130  168.7582 C.ar    1  UNL1        0.2062
      6 N         142.3686  139.2065  167.5185 N.ar    1  UNL1       -0.2121
      7 C         142.5798  140.1009  166.3331 C.ar    1  UNL1        0.1182
      8 C         142.4744  139.8531  164.8574 C.ar    1  UNL1        0.0178
      9 C         142.7501  140.9648  163.8887 C.ar    1  UNL1       -0.0230
     10 C         143.1312  142.3240  164.3956 C.ar    1  UNL1       -0.0216
     11 C         143.2366  142.5718  165.8712 C.ar    1  UNL1        0.0346
     12 C         142.9610  141.4602  166.8400 C.ar    1  UNL1        0.1640
     13 O         142.9853  141.4059  168.3388 O.2     1  UNL1       -0.4384
     14 C         143.4456  143.5616  163.6084 C.3     1  UNL1        0.0434
     15 C         143.4566  143.7453  162.1196 C.3     1  UNL1        0.0768
     16 N         143.1559  142.7370  161.0507 N.3     1  UNL1       -0.2720
     17 C         142.7699  141.2959  161.2062 C.3     1  UNL1        0.0768
     18 C         142.5892  140.5072  162.4693 C.3     1  UNL1        0.0434
     19 S         140.2304  145.2985  160.0337 S.3     1  UNL1       -0.0756
     20 C         140.0655  144.6900  161.3948 C.ar    1  UNL1        0.1932
     21 N         140.2921  145.3850  162.7046 N.ar    1  UNL1       -0.1221
     22 N         140.0117  144.4043  163.8044 N.ar    1  UNL1       -0.1282
     23 C         139.6119  143.1031  163.1742 C.ar    1  UNL1        0.1668
     24 N         139.6451  143.2797  161.6850 N.ar    1  UNL1       -0.2884
     25 C         139.3158  142.2302  160.6652 C.3     1  UNL1        0.1340
     26 C         139.2435  141.8460  163.9050 C.ar    1  UNL1        0.0359
     27 C         138.7738  140.6441  163.1402 C.ar    1  UNL1        0.0030
     28 C         138.4054  139.3871  163.8710 C.ar    1  UNL1        0.0039
     29 C         138.5067  139.3318  165.3665 C.ar    1  UNL1        0.0714
     30 C         138.9764  140.5336  166.1313 C.ar    1  UNL1        0.0039
     31 C         139.3448  141.7907  165.4005 C.ar    1  UNL1        0.0030
     32 C         138.1383  138.0747  166.0972 C.3     1  UNL1        0.4186
     33 F         137.7699  136.8176  166.8280 F       1  UNL1       -0.1659
     34 F         137.5319  138.8927  167.1987 F       1  UNL1       -0.1659
     35 F         138.7446  137.2567  164.9958 F       1  UNL1       -0.1659
@<TRIPOS>BOND
     1     4     5    1
     2     5     6   ar
     3     6     7   ar
     4     7     8   ar
     5     8     9   ar
     6     9    10   ar
     7    10    11   ar
     8    11    12   ar
     9    12    13   ar
    10    10    14    1
    11    14    15    1
    12    15    16    1
    13    16     3    1
    14     3     2    1
    15     2     1    1
    16     1    19    1
    17    19    20    1
    18    20    21   ar
    19    21    22   ar
    20    22    23   ar
    21    23    26    1
    22    26    27   ar
    23    27    28   ar
    24    28    29   ar
    25    29    32    1
    26    32    33    1
    27    32    34    1
    28    32    35    1
    29    29    30   ar
    30    30    31   ar
    31    23    24   ar
    32    24    25    1
    33    16    17    1
    34    17    18    1
    35    13     5   ar
    36    24    20   ar
    37    12     7   ar
    38    31    26   ar
    39    18     9    1
@<TRIPOS>MOLECULE
*****
 35 39 0 0 0
SMALL
GASTEIGER

@<TRIPOS>ATOM
      1 C         140.5531  144.7480  158.9017 C.3     1  UNL1        0.0666
      2 C         140.8903  145.5729  160.1083 C.3     1  UNL1        0.0294
      3 C         139.9877  145.5534  161.3063 C.3     1  UNL1        0.0730
      4 C         142.4238  138.9952  170.0426 C.3     1  UNL1        0.0950
      5 C         142.0973  139.8741  168.8717 C.ar    1  UNL1        0.2062
      6 N         140.7672  139.9699  168.1849 N.ar    1  UNL1       -0.2121
      7 C         140.8915  140.9665  167.0709 C.ar    1  UNL1        0.1182
      8 C         139.9053  141.4676  166.0577 C.ar    1  UNL1        0.0178
      9 C         140.3260  142.4889  165.0428 C.ar    1  UNL1       -0.0230
     10 C         141.7328  143.0092  165.0412 C.ar    1  UNL1       -0.0216
     11 C         142.7190  142.5082  166.0543 C.ar    1  UNL1        0.0346
     12 C         142.2983  141.4869  167.0691 C.ar    1  UNL1        0.1640
     13 O         143.0435  140.8117  168.1822 O.2     1  UNL1       -0.4384
     14 C         142.3548  144.0208  164.1247 C.3     1  UNL1        0.0434
     15 C         141.7234  144.7619  162.9835 C.3     1  UNL1        0.0768
     16 N         140.3142  144.6745  162.4771 N.3     1  UNL1       -0.2720
     17 C         139.1883  143.8243  162.9866 C.3     1  UNL1        0.0768
     18 C         139.1935  142.8517  164.1285 C.3     1  UNL1        0.0434
     19 S         141.2259  143.4248  158.6859 S.3     1  UNL1       -0.0756
     20 C         142.2450  142.9323  159.6703 C.ar    1  UNL1        0.1932
     21 N         143.6817  143.3578  159.7392 N.ar    1  UNL1       -0.1221
     22 N         144.3310  142.6163  160.8700 N.ar    1  UNL1       -0.1282
     23 C         143.2955  141.7325  161.4998 C.ar    1  UNL1        0.1668
     24 N         142.0063  141.9278  160.7584 N.ar    1  UNL1       -0.2884
     25 C         140.7066  141.2395  161.0533 C.3     1  UNL1        0.1340
     26 C         143.5114  140.8146  162.6664 C.ar    1  UNL1        0.0359
     27 C         142.3949  139.9344  163.1448 C.ar    1  UNL1        0.0030
     28 C         142.6108  139.0165  164.3113 C.ar    1  UNL1        0.0039
     29 C         143.9430  138.9786  164.9995 C.ar    1  UNL1        0.0714
     30 C         145.0595  139.8588  164.5211 C.ar    1  UNL1        0.0039
     31 C         144.8436  140.7767  163.3545 C.ar    1  UNL1        0.0030
     32 C         144.1588  138.0607  166.1660 C.3     1  UNL1        0.4186
     33 F         144.3747  137.1428  167.3325 F       1  UNL1       -0.1659
     34 F         142.6745  137.9192  166.3293 F       1  UNL1       -0.1659
     35 F         145.6432  138.2022  166.0027 F       1  UNL1       -0.1659
@<TRIPOS>BOND
     1     4     5    1
     2     5     6   ar
     3     6     7   ar
     4     7     8   ar
     5     8     9   ar
     6     9    10   ar
     7    10    11   ar
     8    11    12   ar
     9    12    13   ar
    10    10    14    1
    11    14    15    1
    12    15    16    1
    13    16     3    1
    14     3     2    1
    15     2     1    1
    16     1    19    1
    17    19    20    1
    18    20    21   ar
    19    21    22   ar
    20    22    23   ar
    21    23    26    1
    22    26    27   ar
    23    27    28   ar
    24    28    29   ar
    25    29    32    1
    26    32    33    1
    27    32    34    1
    28    32    35    1
    29    29    30   ar
    30    30    31   ar
    31    23    24   ar
    32    24    25    1
    33    16    17    1
    34    17    18    1
    35    13     5   ar
    36    24    20   ar
    37    12     7   ar
    38    31    26   ar
    39    18     9    1
@<TRIPOS>MOLECULE
*****
 35 39 0 0 0
SMALL
GASTEIGER

@<TRIPOS>ATOM
      1 C         143.5608  141.7410  158.3322 C.3     1  UNL1        0.0666
      2 C         143.9130  142.5334  159.5562 C.3     1  UNL1        0.0294
      3 C         142.8586  143.3362  160.2591 C.3     1  UNL1        0.0730
      4 C         141.0510  141.8377  171.2024 C.3     1  UNL1        0.0950
      5 C         141.2933  142.0385  169.7358 C.ar    1  UNL1        0.2062
      6 N         142.5995  141.8469  169.0235 N.ar    1  UNL1       -0.2121
      7 C         142.3853  142.1562  167.5715 C.ar    1  UNL1        0.1182
      8 C         143.3144  142.1387  166.3939 C.ar    1  UNL1        0.0178
      9 C         142.8049  142.5040  165.0311 C.ar    1  UNL1       -0.0230
     10 C         141.3665  142.8868  164.8460 C.ar    1  UNL1       -0.0216
     11 C         140.4374  142.9043  166.0235 C.ar    1  UNL1        0.0346
     12 C         140.9468  142.5390  167.3862 C.ar    1  UNL1        0.1640
     13 O         140.2720  142.4663  168.7239 O.2     1  UNL1       -0.4384
     14 C         140.6590  143.2825  163.5839 C.3     1  UNL1        0.0434
     15 C         141.2153  143.3931  162.1952 C.3     1  UNL1        0.0768
     16 N         142.6164  143.1354  161.7258 N.3     1  UNL1       -0.2720
     17 C         143.8073  142.7033  162.5289 C.3     1  UNL1        0.0768
     18 C         143.8912  142.4224  164.0000 C.3     1  UNL1        0.0434
     19 S         143.3677  140.2567  158.4295 S.3     1  UNL1       -0.0756
     20 C         143.1403  139.6161  159.7666 C.ar    1  UNL1        0.1932
     21 N         144.1362  138.7965  160.5324 N.ar    1  UNL1       -0.1221
     22 N         143.4886  138.3563  161.8118 N.ar    1  UNL1       -0.1282
     23 C         142.0923  138.9040  161.8367 C.ar    1  UNL1        0.1668
     24 N         141.8771  139.6825  160.5727 N.ar    1  UNL1       -0.2884
     25 C         140.6194  140.4013  160.1833 C.3     1  UNL1        0.1340
     26 C         141.0876  138.7075  162.9331 C.ar    1  UNL1        0.0359
     27 C         139.8389  137.9180  162.6735 C.ar    1  UNL1        0.0030
     28 C         138.8343  137.7216  163.7699 C.ar    1  UNL1        0.0039
     29 C         139.0782  138.3146  165.1258 C.ar    1  UNL1        0.0714
     30 C         140.3270  139.1041  165.3854 C.ar    1  UNL1        0.0039
     31 C         141.3316  139.3006  164.2890 C.ar    1  UNL1        0.0030
     32 C         138.0736  138.1182  166.2222 C.3     1  UNL1        0.4186
     33 F         137.0689  137.9218  167.3186 F       1  UNL1       -0.1659
     34 F         137.9700  139.6048  166.3936 F       1  UNL1       -0.1659
     35 F         138.1772  136.6316  166.0509 F       1  UNL1       -0.1659
@<TRIPOS>BOND
     1     4     5    1
     2     5     6   ar
     3     6     7   ar
     4     7     8   ar
     5     8     9   ar
     6     9    10   ar
     7    10    11   ar
     8    11    12   ar
     9    12    13   ar
    10    10    14    1
    11    14    15    1
    12    15    16    1
    13    16     3    1
    14     3     2    1
    15     2     1    1
    16     1    19    1
    17    19    20    1
    18    20    21   ar
    19    21    22   ar
    20    22    23   ar
    21    23    26    1
    22    26    27   ar
    23    27    28   ar
    24    28    29   ar
    25    29    32    1
    26    32    33    1
    27    32    34    1
    28    32    35    1
    29    29    30   ar
    30    30    31   ar
    31    23    24   ar
    32    24    25    1
    33    16    17    1
    34    17    18    1
    35    13     5   ar
    36    24    20   ar
    37    12     7   ar
    38    31    26   ar
    39    18     9    1
@<TRIPOS>MOLECULE
*****
 35 39 0 0 0
SMALL
GASTEIGER

@<TRIPOS>ATOM
      1 C         141.1989  142.1484  171.0972 C.3     1  UNL1        0.0666
      2 C         142.2939  141.2305  170.6404 C.3     1  UNL1        0.0294
      3 C         143.2870  141.6982  169.6180 C.3     1  UNL1        0.0730
      4 C         142.5496  138.1008  159.0453 C.3     1  UNL1        0.0950
      5 C         142.6484  138.5829  160.4623 C.ar    1  UNL1        0.2062
      6 N         142.4236  137.7553  161.6929 N.ar    1  UNL1       -0.2121
      7 C         142.6256  138.6382  162.8886 C.ar    1  UNL1        0.1182
      8 C         142.5364  138.3690  164.3616 C.ar    1  UNL1        0.0178
      9 C         142.7968  139.4733  165.3428 C.ar    1  UNL1       -0.0230
     10 C         143.1465  140.8465  164.8512 C.ar    1  UNL1       -0.0216
     11 C         143.2357  141.1157  163.3782 C.ar    1  UNL1        0.0346
     12 C         142.9753  140.0115  162.3969 C.ar    1  UNL1        0.1640
     13 O         142.9894  139.9773  160.8974 O.2     1  UNL1       -0.4384
     14 C         143.4417  142.0798  165.6524 C.3     1  UNL1        0.0434
     15 C         143.4603  142.2442  167.1433 C.3     1  UNL1        0.0768
     16 N         143.1881  141.2161  168.2010 N.3     1  UNL1       -0.2720
     17 C         142.8302  139.7696  168.0292 C.3     1  UNL1        0.0768
     18 C         142.6561  138.9939  166.7572 C.3     1  UNL1        0.0434
     19 S         139.9781  142.3405  170.2473 S.3     1  UNL1       -0.0756
     20 C         139.6011  141.3038  169.2309 C.ar    1  UNL1        0.1932
     21 N         139.0367  139.9454  169.5245 N.ar    1  UNL1       -0.1221
     22 N         138.8091  139.2455  168.2175 N.ar    1  UNL1       -0.1282
     23 C         139.2329  140.1714  167.1160 C.ar    1  UNL1        0.1668
     24 N         139.7224  141.4435  167.7423 N.ar    1  UNL1       -0.2884
     25 C         140.2419  142.6444  167.0088 C.3     1  UNL1        0.1340
     26 C         139.1770  139.8769  165.6463 C.ar    1  UNL1        0.0359
     27 C         138.9110  138.4793  165.1710 C.ar    1  UNL1        0.0030
     28 C         138.8551  138.1848  163.7012 C.ar    1  UNL1        0.0039
     29 C         139.0652  139.2878  162.7067 C.ar    1  UNL1        0.0714
     30 C         139.3312  140.6854  163.1820 C.ar    1  UNL1        0.0039
     31 C         139.3871  140.9799  164.6518 C.ar    1  UNL1        0.0030
     32 C         139.0093  138.9933  161.2370 C.3     1  UNL1        0.4186
     33 F         138.9534  138.6988  159.7673 F       1  UNL1       -0.1659
     34 F         138.1690  137.7816  161.5118 F       1  UNL1       -0.1659
     35 F         139.8496  140.2051  160.9623 F       1  UNL1       -0.1659
@<TRIPOS>BOND
     1     4     5    1
     2     5     6   ar
     3     6     7   ar
     4     7     8   ar
     5     8     9   ar
     6     9    10   ar
     7    10    11   ar
     8    11    12   ar
     9    12    13   ar
    10    10    14    1
    11    14    15    1
    12    15    16    1
    13    16     3    1
    14     3     2    1
    15     2     1    1
    16     1    19    1
    17    19    20    1
    18    20    21   ar
    19    21    22   ar
    20    22    23   ar
    21    23    26    1
    22    26    27   ar
    23    27    28   ar
    24    28    29   ar
    25    29    32    1
    26    32    33    1
    27    32    34    1
    28    32    35    1
    29    29    30   ar
    30    30    31   ar
    31    23    24   ar
    32    24    25    1
    33    16    17    1
    34    17    18    1
    35    13     5   ar
    36    24    20   ar
    37    12     7   ar
    38    31    26   ar
    39    18     9    1
@<TRIPOS>MOLECULE
*****
 35 39 0 0 0
SMALL
GASTEIGER

@<TRIPOS>ATOM
      1 C         140.4541  140.0846  170.7629 C.3     1  UNL1        0.0666
      2 C         141.6829  139.5285  170.1067 C.3     1  UNL1        0.0294
      3 C         142.7942  140.4477  169.6940 C.3     1  UNL1        0.0730
      4 C         144.5901  142.5389  158.8464 C.3     1  UNL1        0.0950
      5 C         144.3494  142.2586  160.3002 C.ar    1  UNL1        0.2062
      6 N         143.9838  140.9302  160.8934 N.ar    1  UNL1       -0.2121
      7 C         143.8405  141.1082  162.3758 C.ar    1  UNL1        0.1182
      8 C         143.4936  140.1462  163.4733 C.ar    1  UNL1        0.0178
      9 C         143.4236  140.6228  164.8939 C.ar    1  UNL1       -0.0230
     10 C         143.7006  142.0610  165.2170 C.ar    1  UNL1       -0.0216
     11 C         144.0475  143.0230  164.1196 C.ar    1  UNL1        0.0346
     12 C         144.1175  142.5465  162.6990 C.ar    1  UNL1        0.1640
     13 O         144.4320  143.2575  161.4162 O.2     1  UNL1       -0.4384
     14 C         143.6851  142.7388  166.5551 C.3     1  UNL1        0.0434
     15 C         143.3888  142.1454  167.9006 C.3     1  UNL1        0.0768
     16 N         143.0349  140.7280  168.2402 N.3     1  UNL1       -0.2720
     17 C         142.8897  139.5536  167.3183 C.3     1  UNL1        0.0768
     18 C         143.0628  139.5068  165.8290 C.3     1  UNL1        0.0434
     19 S         139.1986  140.2754  169.9645 S.3     1  UNL1       -0.0756
     20 C         139.2652  140.3465  168.4677 C.ar    1  UNL1        0.1932
     21 N         138.8891  139.2503  167.5154 N.ar    1  UNL1       -0.1221
     22 N         139.1110  139.7525  166.1195 N.ar    1  UNL1       -0.1282
     23 C         139.6244  141.1591  166.2091 C.ar    1  UNL1        0.1668
     24 N         139.7197  141.5262  167.6604 N.ar    1  UNL1       -0.2884
     25 C         140.1873  142.8420  168.2081 C.3     1  UNL1        0.1340
     26 C         139.9800  142.0433  165.0508 C.ar    1  UNL1        0.0359
     27 C         140.2642  143.4985  165.2778 C.ar    1  UNL1        0.0030
     28 C         140.6199  144.3828  164.1195 C.ar    1  UNL1        0.0039
     29 C         140.6912  143.8119  162.7342 C.ar    1  UNL1        0.0714
     30 C         140.4070  142.3566  162.5073 C.ar    1  UNL1        0.0039
     31 C         140.0514  141.4724  163.6656 C.ar    1  UNL1        0.0030
     32 C         141.0469  144.6961  161.5760 C.3     1  UNL1        0.4186
     33 F         141.4025  145.5804  160.4177 F       1  UNL1       -0.1659
     34 F         140.8115  145.9076  162.4286 F       1  UNL1       -0.1659
     35 F         141.2822  143.4846  160.7233 F       1  UNL1       -0.1659
@<TRIPOS>BOND
     1     4     5    1
     2     5     6   ar
     3     6     7   ar
     4     7     8   ar
     5     8     9   ar
     6     9    10   ar
     7    10    11   ar
     8    11    12   ar
     9    12    13   ar
    10    10    14    1
    11    14    15    1
    12    15    16    1
    13    16     3    1
    14     3     2    1
    15     2     1    1
    16     1    19    1
    17    19    20    1
    18    20    21   ar
    19    21    22   ar
    20    22    23   ar
    21    23    26    1
    22    26    27   ar
    23    27    28   ar
    24    28    29   ar
    25    29    32    1
    26    32    33    1
    27    32    34    1
    28    32    35    1
    29    29    30   ar
    30    30    31   ar
    31    23    24   ar
    32    24    25    1
    33    16    17    1
    34    17    18    1
    35    13     5   ar
    36    24    20   ar
    37    12     7   ar
    38    31    26   ar
    39    18     9    1
@<TRIPOS>MOLECULE
*****
 35 39 0 0 0
SMALL
GASTEIGER

@<TRIPOS>ATOM
      1 C         141.8620  140.2984  157.6630 C.3     1  UNL1        0.0666
      2 C         142.9950  140.8391  158.4839 C.3     1  UNL1        0.0294
      3 C         143.7666  139.9265  159.3905 C.3     1  UNL1        0.0730
      4 C         142.3071  140.5028  170.4723 C.3     1  UNL1        0.0950
      5 C         142.5027  140.4256  168.9871 C.ar    1  UNL1        0.2062
      6 N         142.8202  141.5762  168.0786 N.ar    1  UNL1       -0.2121
      7 C         142.9289  141.0459  166.6797 C.ar    1  UNL1        0.1182
      8 C         143.2234  141.7182  165.3715 C.ar    1  UNL1        0.0178
      9 C         143.2677  140.9121  164.1072 C.ar    1  UNL1       -0.0230
     10 C         143.0174  139.4339  164.1512 C.ar    1  UNL1       -0.0216
     11 C         142.7228  138.7615  165.4593 C.ar    1  UNL1        0.0346
     12 C         142.6786  139.5676  166.7236 C.ar    1  UNL1        0.1640
     13 O         142.4152  139.1842  168.1497 O.2     1  UNL1       -0.4384
     14 C         143.0142  138.4517  163.0174 C.3     1  UNL1        0.0434
     15 C         143.2606  138.7054  161.5596 C.3     1  UNL1        0.0768
     16 N         143.5710  140.0038  160.8757 N.3     1  UNL1       -0.2720
     17 C         143.7117  141.3692  161.4805 C.3     1  UNL1        0.0768
     18 C         143.5767  141.7735  162.9187 C.3     1  UNL1        0.0434
     19 S         140.4585  140.3610  158.1884 S.3     1  UNL1       -0.0756
     20 C         140.0949  139.6279  159.4455 C.ar    1  UNL1        0.1932
     21 N         139.7634  138.1687  159.5507 N.ar    1  UNL1       -0.1221
     22 N         139.4625  137.8642  160.9883 N.ar    1  UNL1       -0.1282
     23 C         139.6081  139.1351  161.7716 C.ar    1  UNL1        0.1668
     24 N         139.9989  140.2252  160.8181 N.ar    1  UNL1       -0.2884
     25 C         140.2496  141.6604  161.1746 C.3     1  UNL1        0.1340
     26 C         139.3994  139.2890  163.2490 C.ar    1  UNL1        0.0359
     27 C         139.5392  140.6381  163.8897 C.ar    1  UNL1        0.0030
     28 C         139.3305  140.7920  165.3671 C.ar    1  UNL1        0.0039
     29 C         138.9822  139.5969  166.2039 C.ar    1  UNL1        0.0714
     30 C         138.8424  138.2478  165.5632 C.ar    1  UNL1        0.0039
     31 C         139.0511  138.0939  164.0858 C.ar    1  UNL1        0.0030
     32 C         138.7735  139.7508  167.6813 C.3     1  UNL1        0.4186
     33 F         138.5649  139.9047  169.1587 F       1  UNL1       -0.1659
     34 F         139.6592  140.9614  167.6803 F       1  UNL1       -0.1659
     35 F         137.8878  138.5402  167.6824 F       1  UNL1       -0.1659
@<TRIPOS>BOND
     1     4     5    1
     2     5     6   ar
     3     6     7   ar
     4     7     8   ar
     5     8     9   ar
     6     9    10   ar
     7    10    11   ar
     8    11    12   ar
     9    12    13   ar
    10    10    14    1
    11    14    15    1
    12    15    16    1
    13    16     3    1
    14     3     2    1
    15     2     1    1
    16     1    19    1
    17    19    20    1
    18    20    21   ar
    19    21    22   ar
    20    22    23   ar
    21    23    26    1
    22    26    27   ar
    23    27    28   ar
    24    28    29   ar
    25    29    32    1
    26    32    33    1
    27    32    34    1
    28    32    35    1
    29    29    30   ar
    30    30    31   ar
    31    23    24   ar
    32    24    25    1
    33    16    17    1
    34    17    18    1
    35    13     5   ar
    36    24    20   ar
    37    12     7   ar
    38    31    26   ar
    39    18     9    1
