@<TRIPOS>MOLECULE
*****
 30 34 0 0 0
SMALL
GASTEIGER

@<TRIPOS>ATOM
      1 O         139.0686  142.8021  161.8857 O.2     1  UNL1       -0.2669
      2 C         140.4607  142.2440  161.8661 C.ar    1  UNL1        0.2634
      3 C         140.9555  141.4217  163.0190 C.ar    1  UNL1        0.0736
      4 C         140.0580  141.1577  164.1916 C.ar    1  UNL1        0.0023
      5 C         140.5527  140.3355  165.3445 C.ar    1  UNL1       -0.0175
      6 C         141.9449  139.7773  165.3248 C.ar    1  UNL1       -0.0022
      7 C         142.4396  138.9551  166.4778 C.ar    1  UNL1       -0.0003
      8 C         143.8317  138.3970  166.4581 C.ar    1  UNL1       -0.0000
      9 C         144.7292  138.6610  165.2855 C.ar    1  UNL1        0.0000
     10 C         144.2345  139.4832  164.1326 C.ar    1  UNL1        0.0015
     11 C         142.8424  140.0413  164.1523 C.ar    1  UNL1        0.0176
     12 C         142.3476  140.8636  162.9993 C.ar    1  UNL1        0.0875
     13 N         143.2450  141.1276  161.8268 N.ar    1  UNL1       -0.2252
     14 C         142.7503  141.9498  160.6739 C.ar    1  UNL1        0.1808
     15 N         141.3581  142.5080  160.6935 N.ar    1  UNL1       -0.2777
     16 C         140.8634  143.3302  159.5406 C.3     1  UNL1        0.1166
     17 C         140.1744  142.6651  158.3861 C.3     1  UNL1        0.0252
     18 C         139.6797  143.4872  157.2332 C.3     1  UNL1        0.0021
     19 C         139.8740  144.9747  157.2347 C.3     1  UNL1        0.0026
     20 C         140.5630  145.6398  158.3892 C.3     1  UNL1        0.0312
     21 C         141.0577  144.8175  159.5422 C.3     1  UNL1        0.1312
     22 O         141.7467  145.4827  160.6967 O.3     1  UNL1       -0.3825
     23 H         141.7895  146.4390  160.5403 H       1  UNL1        0.2104
     24 C         139.6553  140.0714  166.5170 C.3     1  UNL1        0.0542
     25 C         139.8031  140.8800  167.7717 C.ar    1  UNL1        0.0014
     26 C         140.4242  142.2443  167.7159 C.ar    1  UNL1       -0.0008
     27 C         140.5720  143.0529  168.9706 C.ar    1  UNL1        0.0204
     28 C         140.0988  142.4973  170.2811 C.ar    1  UNL1        0.0989
     29 N         139.4778  141.1331  170.3369 N.ar    1  UNL1       -0.2426
     30 C         139.3299  140.3244  169.0822 C.ar    1  UNL1        0.0949
@<TRIPOS>BOND
     1     1     2    2
     2     2     3   ar
     3     3     4   ar
     4     4     5   ar
     5     5    24    1
     6    24    25    1
     7    25    26   ar
     8    26    27   ar
     9    27    28   ar
    10    28    29   ar
    11    29    30   ar
    12     5     6   ar
    13     6     7   ar
    14     7     8   ar
    15     8     9   ar
    16     9    10   ar
    17    10    11   ar
    18    11    12   ar
    19    12    13   ar
    20    13    14   ar
    21    14    15   ar
    22    16    15    1
    23    16    17    1
    24    17    18    1
    25    18    19    1
    26    19    20    1
    27    20    21    1
    28    21    22    1
    29    15     2   ar
    30    21    16    1
    31    12     3   ar
    32    30    25   ar
    33    11     6   ar
    34    22    23    1
@<TRIPOS>MOLECULE
*****
 30 34 0 0 0
SMALL
GASTEIGER

@<TRIPOS>ATOM
      1 O         140.2830  137.6438  161.3525 O.2     1  UNL1       -0.2669
      2 C         140.3459  139.1143  161.0633 C.ar    1  UNL1        0.2634
      3 C         140.0431  140.1056  162.1477 C.ar    1  UNL1        0.0736
      4 C         139.6774  139.6263  163.5212 C.ar    1  UNL1        0.0023
      5 C         139.3746  140.6175  164.6055 C.ar    1  UNL1       -0.0175
      6 C         139.4375  142.0881  164.3164 C.ar    1  UNL1       -0.0022
      7 C         139.1347  143.0793  165.4007 C.ar    1  UNL1       -0.0003
      8 C         139.1977  144.5497  165.1115 C.ar    1  UNL1       -0.0000
      9 C         139.5635  145.0290  163.7380 C.ar    1  UNL1        0.0000
     10 C         139.8663  144.0378  162.6537 C.ar    1  UNL1        0.0015
     11 C         139.8033  142.5674  162.9429 C.ar    1  UNL1        0.0176
     12 C         140.1061  141.5761  161.8585 C.ar    1  UNL1        0.0875
     13 N         140.4719  142.0554  160.4850 N.ar    1  UNL1       -0.2252
     14 C         140.7747  141.0642  159.4007 C.ar    1  UNL1        0.1808
     15 N         140.7117  139.5936  159.6898 N.ar    1  UNL1       -0.2777
     16 C         141.0145  138.6024  158.6055 C.3     1  UNL1        0.1166
     17 C         139.9341  138.1753  157.6567 C.3     1  UNL1        0.0252
     18 C         140.2369  137.1841  156.5724 C.3     1  UNL1        0.0021
     19 C         141.6202  136.6200  156.4368 C.3     1  UNL1        0.0026
     20 C         142.7006  137.0472  157.3856 C.3     1  UNL1        0.0312
     21 C         142.3978  138.0384  158.4700 C.3     1  UNL1        0.1312
     22 O         143.4782  138.4656  159.4187 O.3     1  UNL1       -0.3825
     23 H         144.3046  138.0102  159.1938 H       1  UNL1        0.2104
     24 C         139.0088  140.1382  165.9790 C.3     1  UNL1        0.0542
     25 C         140.0735  139.9655  167.0213 C.ar    1  UNL1        0.0014
     26 C         141.4884  139.6856  166.6091 C.ar    1  UNL1       -0.0008
     27 C         142.5531  139.5128  167.6514 C.ar    1  UNL1        0.0204
     28 C         142.2030  139.6200  169.1060 C.ar    1  UNL1        0.0989
     29 N         140.7882  139.8999  169.5183 N.ar    1  UNL1       -0.2426
     30 C         139.7234  140.0726  168.4760 C.ar    1  UNL1        0.0949
@<TRIPOS>BOND
     1     1     2    2
     2     2     3   ar
     3     3     4   ar
     4     4     5   ar
     5     5    24    1
     6    24    25    1
     7    25    26   ar
     8    26    27   ar
     9    27    28   ar
    10    28    29   ar
    11    29    30   ar
    12     5     6   ar
    13     6     7   ar
    14     7     8   ar
    15     8     9   ar
    16     9    10   ar
    17    10    11   ar
    18    11    12   ar
    19    12    13   ar
    20    13    14   ar
    21    14    15   ar
    22    16    15    1
    23    16    17    1
    24    17    18    1
    25    18    19    1
    26    19    20    1
    27    20    21    1
    28    21    22    1
    29    15     2   ar
    30    21    16    1
    31    12     3   ar
    32    30    25   ar
    33    11     6   ar
    34    22    23    1
@<TRIPOS>MOLECULE
*****
 30 34 0 0 0
SMALL
GASTEIGER

@<TRIPOS>ATOM
      1 O         140.1572  141.8944  157.2570 O.2     1  UNL1       -0.2669
      2 C         140.0362  143.0140  158.2479 C.ar    1  UNL1        0.2634
      3 C         139.4887  142.7466  159.6186 C.ar    1  UNL1        0.0736
      4 C         139.0622  141.3596  159.9984 C.ar    1  UNL1        0.0023
      5 C         138.5147  141.0921  161.3690 C.ar    1  UNL1       -0.0175
      6 C         138.3936  142.2117  162.3599 C.ar    1  UNL1       -0.0022
      7 C         137.8461  141.9443  163.7305 C.ar    1  UNL1       -0.0003
      8 C         137.7251  143.0639  164.7214 C.ar    1  UNL1       -0.0000
      9 C         138.1516  144.4509  164.3416 C.ar    1  UNL1        0.0000
     10 C         138.6991  144.7184  162.9710 C.ar    1  UNL1        0.0015
     11 C         138.8201  143.5988  161.9801 C.ar    1  UNL1        0.0176
     12 C         139.3677  143.8662  160.6094 C.ar    1  UNL1        0.0875
     13 N         139.7942  145.2532  160.2297 N.ar    1  UNL1       -0.2252
     14 C         140.3417  145.5207  158.8590 C.ar    1  UNL1        0.1808
     15 N         140.4627  144.4011  157.8681 N.ar    1  UNL1       -0.2777
     16 C         141.0102  144.6685  156.4975 C.3     1  UNL1        0.1166
     17 C         140.1120  145.2049  155.4225 C.3     1  UNL1        0.0252
     18 C         140.6595  145.4723  154.0519 C.3     1  UNL1        0.0021
     19 C         142.1053  145.2034  153.7562 C.3     1  UNL1        0.0026
     20 C         143.0036  144.6671  154.8311 C.3     1  UNL1        0.0312
     21 C         142.4560  144.3996  156.2018 C.3     1  UNL1        0.1312
     22 O         143.3542  143.8633  157.2768 O.3     1  UNL1       -0.3825
     23 H         144.2495  143.7471  156.9219 H       1  UNL1        0.2104
     24 C         138.0882  139.7051  161.7487 C.3     1  UNL1        0.0542
     25 C         139.0385  138.8010  162.4763 C.ar    1  UNL1        0.0014
     26 C         138.8496  138.5364  163.9407 C.ar    1  UNL1       -0.0008
     27 C         139.7999  137.6323  164.6682 C.ar    1  UNL1        0.0204
     28 C         140.9393  136.9927  163.9314 C.ar    1  UNL1        0.0989
     29 N         141.1283  137.2573  162.4671 N.ar    1  UNL1       -0.2426
     30 C         140.1779  138.1614  161.7395 C.ar    1  UNL1        0.0949
@<TRIPOS>BOND
     1     1     2    2
     2     2     3   ar
     3     3     4   ar
     4     4     5   ar
     5     5    24    1
     6    24    25    1
     7    25    26   ar
     8    26    27   ar
     9    27    28   ar
    10    28    29   ar
    11    29    30   ar
    12     5     6   ar
    13     6     7   ar
    14     7     8   ar
    15     8     9   ar
    16     9    10   ar
    17    10    11   ar
    18    11    12   ar
    19    12    13   ar
    20    13    14   ar
    21    14    15   ar
    22    16    15    1
    23    16    17    1
    24    17    18    1
    25    18    19    1
    26    19    20    1
    27    20    21    1
    28    21    22    1
    29    15     2   ar
    30    21    16    1
    31    12     3   ar
    32    30    25   ar
    33    11     6   ar
    34    22    23    1
@<TRIPOS>MOLECULE
*****
 30 34 0 0 0
SMALL
GASTEIGER

@<TRIPOS>ATOM
      1 O         142.3258  143.4330  161.9178 O.2     1  UNL1       -0.2669
      2 C         141.7824  142.0352  161.9459 C.ar    1  UNL1        0.2634
      3 C         141.0487  141.5398  163.1568 C.ar    1  UNL1        0.0736
      4 C         140.8584  142.4424  164.3397 C.ar    1  UNL1        0.0023
      5 C         140.1247  141.9471  165.5506 C.ar    1  UNL1       -0.0175
      6 C         139.5813  140.5492  165.5787 C.ar    1  UNL1       -0.0022
      7 C         138.8476  140.0539  166.7896 C.ar    1  UNL1       -0.0003
      8 C         138.3043  138.6561  166.8177 C.ar    1  UNL1       -0.0000
      9 C         138.4946  137.7536  165.6348 C.ar    1  UNL1        0.0000
     10 C         139.2283  138.2488  164.4239 C.ar    1  UNL1        0.0015
     11 C         139.7717  139.6467  164.3958 C.ar    1  UNL1        0.0176
     12 C         140.5054  140.1420  163.1849 C.ar    1  UNL1        0.0875
     13 N         140.6957  139.2395  162.0020 N.ar    1  UNL1       -0.2252
     14 C         141.4294  139.7347  160.7911 C.ar    1  UNL1        0.1808
     15 N         141.9728  141.1326  160.7630 N.ar    1  UNL1       -0.2777
     16 C         142.7065  141.6279  159.5521 C.3     1  UNL1        0.1166
     17 C         142.0003  141.7171  158.2317 C.3     1  UNL1        0.0252
     18 C         142.7340  142.2124  157.0208 C.3     1  UNL1        0.0021
     19 C         144.1739  142.6185  157.1302 C.3     1  UNL1        0.0026
     20 C         144.8800  142.5293  158.4506 C.3     1  UNL1        0.0312
     21 C         144.1463  142.0340  159.6616 C.3     1  UNL1        0.1312
     22 O         144.8524  141.9448  160.9820 O.3     1  UNL1       -0.3825
     23 H         145.7697  142.2429  160.8789 H       1  UNL1        0.2104
     24 C         139.9343  142.8497  166.7335 C.3     1  UNL1        0.0542
     25 C         140.9043  142.8024  167.8767 C.ar    1  UNL1        0.0014
     26 C         142.2654  142.2030  167.6812 C.ar    1  UNL1       -0.0008
     27 C         143.2353  142.1558  168.8244 C.ar    1  UNL1        0.0204
     28 C         142.8443  142.7080  170.1631 C.ar    1  UNL1        0.0989
     29 N         141.4832  143.3074  170.3586 N.ar    1  UNL1       -0.2426
     30 C         140.5132  143.3546  169.2154 C.ar    1  UNL1        0.0949
@<TRIPOS>BOND
     1     1     2    2
     2     2     3   ar
     3     3     4   ar
     4     4     5   ar
     5     5    24    1
     6    24    25    1
     7    25    26   ar
     8    26    27   ar
     9    27    28   ar
    10    28    29   ar
    11    29    30   ar
    12     5     6   ar
    13     6     7   ar
    14     7     8   ar
    15     8     9   ar
    16     9    10   ar
    17    10    11   ar
    18    11    12   ar
    19    12    13   ar
    20    13    14   ar
    21    14    15   ar
    22    16    15    1
    23    16    17    1
    24    17    18    1
    25    18    19    1
    26    19    20    1
    27    20    21    1
    28    21    22    1
    29    15     2   ar
    30    21    16    1
    31    12     3   ar
    32    30    25   ar
    33    11     6   ar
    34    22    23    1
@<TRIPOS>MOLECULE
*****
 30 34 0 0 0
SMALL
GASTEIGER

@<TRIPOS>ATOM
      1 O         139.3871  142.6110  165.4513 O.2     1  UNL1       -0.2669
      2 C         140.4505  141.5559  165.3748 C.ar    1  UNL1        0.2634
      3 C         140.8900  141.0293  164.0408 C.ar    1  UNL1        0.0736
      4 C         140.2661  141.5579  162.7832 C.ar    1  UNL1        0.0023
      5 C         140.7055  141.0313  161.4493 C.ar    1  UNL1       -0.0175
      6 C         141.7690  139.9761  161.3727 C.ar    1  UNL1       -0.0022
      7 C         142.2084  139.4496  160.0387 C.ar    1  UNL1       -0.0003
      8 C         143.2718  138.3944  159.9623 C.ar    1  UNL1       -0.0000
      9 C         143.8957  137.8659  161.2198 C.ar    1  UNL1        0.0000
     10 C         143.4563  138.3924  162.5538 C.ar    1  UNL1        0.0015
     11 C         142.3929  139.4476  162.6302 C.ar    1  UNL1        0.0176
     12 C         141.9534  139.9742  163.9643 C.ar    1  UNL1        0.0875
     13 N         142.5773  139.4456  165.2218 N.ar    1  UNL1       -0.2252
     14 C         142.1378  139.9722  166.5558 C.ar    1  UNL1        0.1808
     15 N         141.0744  141.0274  166.6323 N.ar    1  UNL1       -0.2777
     16 C         140.6349  141.5539  167.9663 C.3     1  UNL1        0.1166
     17 C         141.1643  142.8653  168.4664 C.3     1  UNL1        0.0252
     18 C         140.7248  143.3919  169.8004 C.3     1  UNL1        0.0021
     19 C         139.7560  142.6071  170.6343 C.3     1  UNL1        0.0026
     20 C         139.2266  141.2957  170.1343 C.3     1  UNL1        0.0312
     21 C         139.6661  140.7691  168.8002 C.3     1  UNL1        0.1312
     22 O         139.1368  139.4577  168.3001 O.3     1  UNL1       -0.3825
     23 H         138.5270  139.0842  168.9554 H       1  UNL1        0.2104
     24 C         140.0816  141.5598  160.1917 C.3     1  UNL1        0.0542
     25 C         140.5601  142.8541  159.6037 C.ar    1  UNL1        0.0014
     26 C         141.6288  142.8500  158.5511 C.ar    1  UNL1       -0.0008
     27 C         142.1073  144.1443  157.9630 C.ar    1  UNL1        0.0204
     28 C         141.5172  145.4427  158.4276 C.ar    1  UNL1        0.0989
     29 N         140.4486  145.4469  159.4801 N.ar    1  UNL1       -0.2426
     30 C         139.9700  144.1526  160.0682 C.ar    1  UNL1        0.0949
@<TRIPOS>BOND
     1     1     2    2
     2     2     3   ar
     3     3     4   ar
     4     4     5   ar
     5     5    24    1
     6    24    25    1
     7    25    26   ar
     8    26    27   ar
     9    27    28   ar
    10    28    29   ar
    11    29    30   ar
    12     5     6   ar
    13     6     7   ar
    14     7     8   ar
    15     8     9   ar
    16     9    10   ar
    17    10    11   ar
    18    11    12   ar
    19    12    13   ar
    20    13    14   ar
    21    14    15   ar
    22    16    15    1
    23    16    17    1
    24    17    18    1
    25    18    19    1
    26    19    20    1
    27    20    21    1
    28    21    22    1
    29    15     2   ar
    30    21    16    1
    31    12     3   ar
    32    30    25   ar
    33    11     6   ar
    34    22    23    1
@<TRIPOS>MOLECULE
*****
 30 34 0 0 0
SMALL
GASTEIGER

@<TRIPOS>ATOM
      1 O         140.1504  142.0597  166.4357 O.2     1  UNL1       -0.2669
      2 C         141.1763  141.0293  166.0674 C.ar    1  UNL1        0.2634
      3 C         141.4281  140.7037  164.6250 C.ar    1  UNL1        0.0736
      4 C         140.6538  141.4085  163.5508 C.ar    1  UNL1        0.0023
      5 C         140.9055  141.0829  162.1084 C.ar    1  UNL1       -0.0175
      6 C         141.9315  140.0525  161.7401 C.ar    1  UNL1       -0.0022
      7 C         142.1832  139.7269  160.2977 C.ar    1  UNL1       -0.0003
      8 C         143.2092  138.6965  159.9294 C.ar    1  UNL1       -0.0000
      9 C         143.9834  137.9917  161.0035 C.ar    1  UNL1        0.0000
     10 C         143.7317  138.3173  162.4459 C.ar    1  UNL1        0.0015
     11 C         142.7058  139.3477  162.8142 C.ar    1  UNL1        0.0176
     12 C         142.4540  139.6733  164.2567 C.ar    1  UNL1        0.0875
     13 N         143.2283  138.9685  165.3308 N.ar    1  UNL1       -0.2252
     14 C         142.9766  139.2941  166.7732 C.ar    1  UNL1        0.1808
     15 N         141.9505  140.3245  167.1416 N.ar    1  UNL1       -0.2777
     16 C         141.6988  140.6501  168.5840 C.3     1  UNL1        0.1166
     17 C         140.6660  139.8843  169.3565 C.3     1  UNL1        0.0252
     18 C         140.4143  140.2099  170.7989 C.3     1  UNL1        0.0021
     19 C         141.1955  141.3013  171.4689 C.3     1  UNL1        0.0026
     20 C         142.2283  142.0670  170.6963 C.3     1  UNL1        0.0312
     21 C         142.4800  141.7414  169.2539 C.3     1  UNL1        0.1312
     22 O         143.5129  142.5071  168.4813 O.3     1  UNL1       -0.3825
     23 H         143.9219  143.1709  169.0583 H       1  UNL1        0.2104
     24 C         140.1313  141.7877  161.0343 C.3     1  UNL1        0.0542
     25 C         139.9540  143.2761  161.0913 C.ar    1  UNL1        0.0014
     26 C         140.7761  144.1639  160.2046 C.ar    1  UNL1       -0.0008
     27 C         140.5989  145.6522  160.2616 C.ar    1  UNL1        0.0204
     28 C         139.5996  146.2529  161.2053 C.ar    1  UNL1        0.0989
     29 N         138.7775  145.3653  162.0919 N.ar    1  UNL1       -0.2426
     30 C         138.9547  143.8768  162.0350 C.ar    1  UNL1        0.0949
@<TRIPOS>BOND
     1     1     2    2
     2     2     3   ar
     3     3     4   ar
     4     4     5   ar
     5     5    24    1
     6    24    25    1
     7    25    26   ar
     8    26    27   ar
     9    27    28   ar
    10    28    29   ar
    11    29    30   ar
    12     5     6   ar
    13     6     7   ar
    14     7     8   ar
    15     8     9   ar
    16     9    10   ar
    17    10    11   ar
    18    11    12   ar
    19    12    13   ar
    20    13    14   ar
    21    14    15   ar
    22    16    15    1
    23    16    17    1
    24    17    18    1
    25    18    19    1
    26    19    20    1
    27    20    21    1
    28    21    22    1
    29    15     2   ar
    30    21    16    1
    31    12     3   ar
    32    30    25   ar
    33    11     6   ar
    34    22    23    1
@<TRIPOS>MOLECULE
*****
 30 34 0 0 0
SMALL
GASTEIGER

@<TRIPOS>ATOM
      1 O         139.4650  138.1135  160.0540 O.2     1  UNL1       -0.2669
      2 C         139.9574  139.4516  159.5884 C.ar    1  UNL1        0.2634
      3 C         139.6712  140.6802  160.4001 C.ar    1  UNL1        0.0736
      4 C         138.8925  140.5704  161.6775 C.ar    1  UNL1        0.0023
      5 C         138.6063  141.7989  162.4892 C.ar    1  UNL1       -0.0175
      6 C         139.0987  143.1371  162.0236 C.ar    1  UNL1       -0.0022
      7 C         138.8124  144.3656  162.8353 C.ar    1  UNL1       -0.0003
      8 C         139.3048  145.7037  162.3697 C.ar    1  UNL1       -0.0000
      9 C         140.0834  145.8134  161.0923 C.ar    1  UNL1        0.0000
     10 C         140.3697  144.5850  160.2806 C.ar    1  UNL1        0.0015
     11 C         139.8773  143.2468  160.7462 C.ar    1  UNL1        0.0176
     12 C         140.1636  142.0183  159.9345 C.ar    1  UNL1        0.0875
     13 N         140.9422  142.1280  158.6571 N.ar    1  UNL1       -0.2252
     14 C         141.2284  140.8996  157.8454 C.ar    1  UNL1        0.1808
     15 N         140.7361  139.5614  158.3110 N.ar    1  UNL1       -0.2777
     16 C         141.0223  138.3329  157.4993 C.3     1  UNL1        0.1166
     17 C         140.0238  137.8525  156.4883 C.3     1  UNL1        0.0252
     18 C         140.3100  136.6241  155.6765 C.3     1  UNL1        0.0021
     19 C         141.5949  135.8760  155.8758 C.3     1  UNL1        0.0026
     20 C         142.5934  136.3564  156.8868 C.3     1  UNL1        0.0312
     21 C         142.3071  137.5849  157.6985 C.3     1  UNL1        0.1312
     22 O         143.3056  138.0653  158.7096 O.3     1  UNL1       -0.3825
     23 H         144.0739  137.4731  158.7119 H       1  UNL1        0.2104
     24 C         137.8276  141.6892  163.7666 C.3     1  UNL1        0.0542
     25 C         138.4933  141.1762  165.0090 C.ar    1  UNL1        0.0014
     26 C         138.1366  139.8219  165.5465 C.ar    1  UNL1       -0.0008
     27 C         138.8023  139.3089  166.7889 C.ar    1  UNL1        0.0204
     28 C         139.8247  140.1501  167.4939 C.ar    1  UNL1        0.0989
     29 N         140.1814  141.5043  166.9565 N.ar    1  UNL1       -0.2426
     30 C         139.5158  142.0174  165.7140 C.ar    1  UNL1        0.0949
@<TRIPOS>BOND
     1     1     2    2
     2     2     3   ar
     3     3     4   ar
     4     4     5   ar
     5     5    24    1
     6    24    25    1
     7    25    26   ar
     8    26    27   ar
     9    27    28   ar
    10    28    29   ar
    11    29    30   ar
    12     5     6   ar
    13     6     7   ar
    14     7     8   ar
    15     8     9   ar
    16     9    10   ar
    17    10    11   ar
    18    11    12   ar
    19    12    13   ar
    20    13    14   ar
    21    14    15   ar
    22    16    15    1
    23    16    17    1
    24    17    18    1
    25    18    19    1
    26    19    20    1
    27    20    21    1
    28    21    22    1
    29    15     2   ar
    30    21    16    1
    31    12     3   ar
    32    30    25   ar
    33    11     6   ar
    34    22    23    1
@<TRIPOS>MOLECULE
*****
 30 34 0 0 0
SMALL
GASTEIGER

@<TRIPOS>ATOM
      1 O         143.3672  138.5622  159.2679 O.2     1  UNL1       -0.2669
      2 C         143.7224  139.9583  159.6861 C.ar    1  UNL1        0.2634
      3 C         143.6638  140.3453  161.1341 C.ar    1  UNL1        0.0736
      4 C         143.2500  139.3363  162.1640 C.ar    1  UNL1        0.0023
      5 C         143.1914  139.7233  163.6120 C.ar    1  UNL1       -0.0175
      6 C         143.5465  141.1194  164.0302 C.ar    1  UNL1       -0.0022
      7 C         143.4879  141.5064  165.4782 C.ar    1  UNL1       -0.0003
      8 C         143.8431  142.9024  165.8963 C.ar    1  UNL1       -0.0000
      9 C         144.2568  143.9115  164.8665 C.ar    1  UNL1        0.0000
     10 C         144.3155  143.5245  163.4185 C.ar    1  UNL1        0.0015
     11 C         143.9603  142.1284  163.0003 C.ar    1  UNL1        0.0176
     12 C         144.0189  141.7414  161.5523 C.ar    1  UNL1        0.0875
     13 N         144.4327  142.7504  160.5224 N.ar    1  UNL1       -0.2252
     14 C         144.4913  142.3634  159.0744 C.ar    1  UNL1        0.1808
     15 N         144.1361  140.9673  158.6562 N.ar    1  UNL1       -0.2777
     16 C         144.1947  140.5803  157.2082 C.3     1  UNL1        0.1166
     17 C         145.5014  140.6230  156.4727 C.3     1  UNL1        0.0252
     18 C         145.5600  140.2361  155.0247 C.3     1  UNL1        0.0021
     19 C         144.3119  139.8063  154.3121 C.3     1  UNL1        0.0026
     20 C         143.0053  139.7636  155.0476 C.3     1  UNL1        0.0312
     21 C         142.9467  140.1507  156.4957 C.3     1  UNL1        0.1312
     22 O         141.6401  140.1080  157.2311 O.3     1  UNL1       -0.3825
     23 H         140.9398  139.8113  156.6291 H       1  UNL1        0.2104
     24 C         142.7776  138.7142  164.6419 C.3     1  UNL1        0.0542
     25 C         141.3354  138.5929  165.0359 C.ar    1  UNL1        0.0014
     26 C         140.7775  139.4684  166.1187 C.ar    1  UNL1       -0.0008
     27 C         139.3353  139.3470  166.5127 C.ar    1  UNL1        0.0204
     28 C         138.4510  138.3502  165.8241 C.ar    1  UNL1        0.0989
     29 N         139.0088  137.4747  164.7413 N.ar    1  UNL1       -0.2426
     30 C         140.4511  137.5961  164.3472 C.ar    1  UNL1        0.0949
@<TRIPOS>BOND
     1     1     2    2
     2     2     3   ar
     3     3     4   ar
     4     4     5   ar
     5     5    24    1
     6    24    25    1
     7    25    26   ar
     8    26    27   ar
     9    27    28   ar
    10    28    29   ar
    11    29    30   ar
    12     5     6   ar
    13     6     7   ar
    14     7     8   ar
    15     8     9   ar
    16     9    10   ar
    17    10    11   ar
    18    11    12   ar
    19    12    13   ar
    20    13    14   ar
    21    14    15   ar
    22    16    15    1
    23    16    17    1
    24    17    18    1
    25    18    19    1
    26    19    20    1
    27    20    21    1
    28    21    22    1
    29    15     2   ar
    30    21    16    1
    31    12     3   ar
    32    30    25   ar
    33    11     6   ar
    34    22    23    1
@<TRIPOS>MOLECULE
*****
 30 34 0 0 0
SMALL
GASTEIGER

@<TRIPOS>ATOM
      1 O         142.7726  141.7684  166.2997 O.2     1  UNL1       -0.2669
      2 C         141.4846  141.0730  165.9718 C.ar    1  UNL1        0.2634
      3 C         141.0744  140.8898  164.5406 C.ar    1  UNL1        0.0736
      4 C         141.9521  141.4021  163.4374 C.ar    1  UNL1        0.0023
      5 C         141.5419  141.2189  162.0063 C.ar    1  UNL1       -0.0175
      6 C         140.2539  140.5234  161.6783 C.ar    1  UNL1       -0.0022
      7 C         139.8437  140.3403  160.2472 C.ar    1  UNL1       -0.0003
      8 C         138.5558  139.6448  159.9193 C.ar    1  UNL1       -0.0000
      9 C         137.6781  139.1325  161.0226 C.ar    1  UNL1        0.0000
     10 C         138.0883  139.3157  162.4537 C.ar    1  UNL1        0.0015
     11 C         139.3762  140.0111  162.7816 C.ar    1  UNL1        0.0176
     12 C         139.7865  140.1943  164.2127 C.ar    1  UNL1        0.0875
     13 N         138.9087  139.6820  165.3160 N.ar    1  UNL1       -0.2252
     14 C         139.3189  139.8652  166.7471 C.ar    1  UNL1        0.1808
     15 N         140.6069  140.5606  167.0751 N.ar    1  UNL1       -0.2777
     16 C         141.0171  140.7438  168.5062 C.3     1  UNL1        0.1166
     17 C         140.2310  141.6556  169.4009 C.3     1  UNL1        0.0252
     18 C         140.6411  141.8388  170.8320 C.3     1  UNL1        0.0021
     19 C         141.8376  141.1101  171.3685 C.3     1  UNL1        0.0026
     20 C         142.6237  140.1983  170.4737 C.3     1  UNL1        0.0312
     21 C         142.2135  140.0151  169.0425 C.3     1  UNL1        0.1312
     22 O         142.9996  139.1033  168.1478 O.3     1  UNL1       -0.3825
     23 H         143.7346  138.7148  168.6475 H       1  UNL1        0.2104
     24 C         142.4196  141.7312  160.9030 C.3     1  UNL1        0.0542
     25 C         142.0772  143.0151  160.2070 C.ar    1  UNL1        0.0014
     26 C         140.9756  143.8847  160.7366 C.ar    1  UNL1       -0.0008
     27 C         140.6332  145.1685  160.0406 C.ar    1  UNL1        0.0204
     28 C         141.3922  145.5828  158.8150 C.ar    1  UNL1        0.0989
     29 N         142.4937  144.7132  158.2854 N.ar    1  UNL1       -0.2426
     30 C         142.8362  143.4293  158.9814 C.ar    1  UNL1        0.0949
@<TRIPOS>BOND
     1     1     2    2
     2     2     3   ar
     3     3     4   ar
     4     4     5   ar
     5     5    24    1
     6    24    25    1
     7    25    26   ar
     8    26    27   ar
     9    27    28   ar
    10    28    29   ar
    11    29    30   ar
    12     5     6   ar
    13     6     7   ar
    14     7     8   ar
    15     8     9   ar
    16     9    10   ar
    17    10    11   ar
    18    11    12   ar
    19    12    13   ar
    20    13    14   ar
    21    14    15   ar
    22    16    15    1
    23    16    17    1
    24    17    18    1
    25    18    19    1
    26    19    20    1
    27    20    21    1
    28    21    22    1
    29    15     2   ar
    30    21    16    1
    31    12     3   ar
    32    30    25   ar
    33    11     6   ar
    34    22    23    1
