@<TRIPOS>MOLECULE
*****
 30 33 0 0 0
SMALL
GASTEIGER

@<TRIPOS>ATOM
      1 C         139.6276  146.3899  161.7299 C.3     1  UNL1        0.0324
      2 C         140.6514  145.3290  162.0063 C.ar    1  UNL1       -0.0071
      3 C         140.7321  144.7008  163.3660 C.ar    1  UNL1        0.0115
      4 C         141.7558  143.6399  163.6424 C.ar    1  UNL1        0.0476
      5 C         142.6989  143.2072  162.5592 C.ar    1  UNL1        0.0158
      6 C         142.6182  143.8355  161.1995 C.ar    1  UNL1        0.0156
      7 C         141.5944  144.8964  160.9231 C.ar    1  UNL1        0.0466
      8 N         141.8365  143.0116  165.0022 N.pl3   1  UNL1       -0.3061
      9 C         143.0891  142.5550  165.6896 C.3     1  UNL1        0.0923
     10 C         142.7054  141.9908  167.0254 C.3     1  UNL1        0.0391
     11 C         141.2157  142.0987  167.1637 C.3     1  UNL1        0.0790
     12 C         140.6787  142.7296  165.9132 C.3     1  UNL1        0.1067
     13 N         140.4053  141.6539  168.3449 N.3     1  UNL1       -0.2736
     14 C         139.7515  140.3142  168.5113 C.3     1  UNL1        0.0721
     15 C         139.0486  140.3029  169.8364 C.3     1  UNL1        0.0187
     16 C         139.2679  141.6357  170.4888 C.3     1  UNL1        0.0174
     17 C         140.1064  142.4706  169.5670 C.3     1  UNL1        0.0576
     18 C         140.5655  143.8756  169.8224 C.3     1  UNL1        0.0173
     19 N         141.5137  145.5247  159.5634 N.am    1  UNL1       -0.2806
     20 C         140.4622  145.0775  158.5917 C.2     1  UNL1        0.2493
     21 O         139.4913  144.0019  158.9797 O.2     1  UNL1       -0.2698
     22 H         142.1510  146.2306  159.3087 H       1  UNL1        0.1552
     23 C         140.3815  145.7057  157.2320 C.ar    1  UNL1        0.0520
     24 C         139.4545  146.8606  156.9932 C.ar    1  UNL1        0.0338
     25 C         139.3738  147.4888  155.6336 C.ar    1  UNL1        0.1403
     26 F         138.4468  148.6437  155.3948 F       1  UNL1       -0.2042
     27 C         140.2201  146.9623  154.5127 C.ar    1  UNL1        0.0293
     28 C         141.1472  145.8075  154.7514 C.ar    1  UNL1       -0.0018
     29 C         141.2279  145.1792  156.1111 C.ar    1  UNL1       -0.0173
     30 C         142.1549  144.0244  156.3499 C.3     1  UNL1        0.0312
@<TRIPOS>BOND
     1     1     2    1
     2     2     3   ar
     3     3     4   ar
     4     4     8    1
     5     8     9    1
     6     9    10    1
     7    10    11    1
     8    11    13    1
     9    13    14    1
    10    14    15    1
    11    15    16    1
    12    16    17    1
    13    17    18    1
    14    11    12    1
    15     4     5   ar
    16     5     6   ar
    17     6     7   ar
    18     7    19    1
    19    19    20   am
    20    20    21    2
    21    20    23    1
    22    23    24   ar
    23    24    25   ar
    24    25    26    1
    25    25    27   ar
    26    27    28   ar
    27    28    29   ar
    28    29    30    1
    29     7     2   ar
    30    29    23   ar
    31    12     8    1
    32    17    13    1
    33    19    22    1
@<TRIPOS>MOLECULE
*****
 30 33 0 0 0
SMALL
GASTEIGER

@<TRIPOS>ATOM
      1 C         143.1843  143.1446  159.9308 C.3     1  UNL1        0.0324
      2 C         142.4308  143.7354  161.0854 C.ar    1  UNL1       -0.0071
      3 C         142.5228  143.1040  162.4429 C.ar    1  UNL1        0.0115
      4 C         141.7693  143.6948  163.5975 C.ar    1  UNL1        0.0476
      5 C         140.9237  144.9170  163.3947 C.ar    1  UNL1        0.0158
      6 C         140.8317  145.5484  162.0372 C.ar    1  UNL1        0.0156
      7 C         141.5852  144.9576  160.8825 C.ar    1  UNL1        0.0466
      8 N         141.8614  143.0633  164.9550 N.pl3   1  UNL1       -0.3061
      9 C         143.1237  142.6448  165.6490 C.3     1  UNL1        0.0923
     10 C         142.7498  142.0623  166.9797 C.3     1  UNL1        0.0391
     11 C         141.2564  142.1209  167.1083 C.3     1  UNL1        0.0790
     12 C         140.7074  142.7396  165.8570 C.3     1  UNL1        0.1067
     13 N         140.4531  141.6445  168.2821 N.3     1  UNL1       -0.2736
     14 C         139.8101  140.2966  168.4216 C.3     1  UNL1        0.0721
     15 C         139.1114  140.2514  169.7482 C.3     1  UNL1        0.0187
     16 C         139.3227  141.5715  170.4285 C.3     1  UNL1        0.0174
     17 C         140.1519  142.4325  169.5224 C.3     1  UNL1        0.0576
     18 C         140.6011  143.8351  169.8067 C.3     1  UNL1        0.0173
     19 N         141.4931  145.5891  159.5250 N.am    1  UNL1       -0.2806
     20 C         140.4207  145.1585  158.5687 C.2     1  UNL1        0.2493
     21 O         139.4403  144.0965  158.9700 O.2     1  UNL1       -0.2698
     22 H         142.1366  146.2861  159.2616 H       1  UNL1        0.1552
     23 C         140.3286  145.7900  157.2112 C.ar    1  UNL1        0.0520
     24 C         139.4237  146.9658  156.9908 C.ar    1  UNL1        0.0338
     25 C         139.3316  147.5973  155.6334 C.ar    1  UNL1        0.1403
     26 F         138.4267  148.7731  155.4130 F       1  UNL1       -0.2042
     27 C         140.1443  147.0529  154.4963 C.ar    1  UNL1        0.0293
     28 C         141.0492  145.8771  154.7167 C.ar    1  UNL1       -0.0018
     29 C         141.1413  145.2456  156.0741 C.ar    1  UNL1       -0.0173
     30 C         142.0462  144.0697  156.2945 C.3     1  UNL1        0.0312
@<TRIPOS>BOND
     1     1     2    1
     2     2     3   ar
     3     3     4   ar
     4     4     8    1
     5     8     9    1
     6     9    10    1
     7    10    11    1
     8    11    13    1
     9    13    14    1
    10    14    15    1
    11    15    16    1
    12    16    17    1
    13    17    18    1
    14    11    12    1
    15     4     5   ar
    16     5     6   ar
    17     6     7   ar
    18     7    19    1
    19    19    20   am
    20    20    21    2
    21    20    23    1
    22    23    24   ar
    23    24    25   ar
    24    25    26    1
    25    25    27   ar
    26    27    28   ar
    27    28    29   ar
    28    29    30    1
    29     7     2   ar
    30    29    23   ar
    31    12     8    1
    32    17    13    1
    33    19    22    1
@<TRIPOS>MOLECULE
*****
 30 33 0 0 0
SMALL
GASTEIGER

@<TRIPOS>ATOM
      1 C         143.0087  144.9852  163.7206 C.3     1  UNL1        0.0324
      2 C         141.8079  144.3687  163.0663 C.ar    1  UNL1       -0.0071
      3 C         141.5541  144.5895  161.6046 C.ar    1  UNL1        0.0115
      4 C         140.3533  143.9731  160.9503 C.ar    1  UNL1        0.0476
      5 C         139.4063  143.1358  161.7578 C.ar    1  UNL1        0.0158
      6 C         139.6600  142.9150  163.2196 C.ar    1  UNL1        0.0156
      7 C         140.8608  143.5315  163.8738 C.ar    1  UNL1        0.0466
      8 N         140.0996  144.1939  159.4885 N.pl3   1  UNL1       -0.3061
      9 C         139.6734  143.1493  158.4999 C.3     1  UNL1        0.0923
     10 C         139.5379  143.8079  157.1591 C.3     1  UNL1        0.0391
     11 C         139.8803  145.2596  157.3189 C.3     1  UNL1        0.0790
     12 C         140.2275  145.4981  158.7586 C.3     1  UNL1        0.1067
     13 N         139.8764  146.2915  156.2303 N.3     1  UNL1       -0.2736
     14 C         139.0085  147.5137  156.1772 C.3     1  UNL1        0.0721
     15 C         139.3353  148.2599  154.9177 C.3     1  UNL1        0.0187
     16 C         140.4052  147.4989  154.1924 C.3     1  UNL1        0.0174
     17 C         140.7396  146.2823  155.0036 C.3     1  UNL1        0.0576
     18 C         141.7584  145.2396  154.6502 C.3     1  UNL1        0.0173
     19 N         141.1146  143.3106  165.3357 N.am    1  UNL1       -0.2806
     20 C         141.7515  142.0352  165.8021 C.2     1  UNL1        0.2493
     21 O         142.1347  140.9805  164.8067 O.2     1  UNL1       -0.2698
     22 H         140.8630  144.0028  165.9890 H       1  UNL1        0.1552
     23 C         142.0052  141.8144  167.2639 C.ar    1  UNL1        0.0520
     24 C         143.2538  142.3520  167.8980 C.ar    1  UNL1        0.0338
     25 C         143.5075  142.1312  169.3598 C.ar    1  UNL1        0.1403
     26 F         144.7561  142.6689  169.9938 F       1  UNL1       -0.2042
     27 C         142.5128  141.3728  170.1874 C.ar    1  UNL1        0.0293
     28 C         141.2642  140.8351  169.5534 C.ar    1  UNL1       -0.0018
     29 C         141.0104  141.0559  168.0916 C.ar    1  UNL1       -0.0173
     30 C         139.7619  140.5183  167.4575 C.3     1  UNL1        0.0312
@<TRIPOS>BOND
     1     1     2    1
     2     2     3   ar
     3     3     4   ar
     4     4     8    1
     5     8     9    1
     6     9    10    1
     7    10    11    1
     8    11    13    1
     9    13    14    1
    10    14    15    1
    11    15    16    1
    12    16    17    1
    13    17    18    1
    14    11    12    1
    15     4     5   ar
    16     5     6   ar
    17     6     7   ar
    18     7    19    1
    19    19    20   am
    20    20    21    2
    21    20    23    1
    22    23    24   ar
    23    24    25   ar
    24    25    26    1
    25    25    27   ar
    26    27    28   ar
    27    28    29   ar
    28    29    30    1
    29     7     2   ar
    30    29    23   ar
    31    12     8    1
    32    17    13    1
    33    19    22    1
@<TRIPOS>MOLECULE
*****
 30 33 0 0 0
SMALL
GASTEIGER

@<TRIPOS>ATOM
      1 C         145.2306  140.6795  164.0084 C.3     1  UNL1        0.0324
      2 C         144.0620  139.9618  163.4008 C.ar    1  UNL1       -0.0071
      3 C         144.0517  139.6537  161.9329 C.ar    1  UNL1        0.0115
      4 C         142.8831  138.9360  161.3253 C.ar    1  UNL1        0.0476
      5 C         141.7247  138.5264  162.1857 C.ar    1  UNL1        0.0158
      6 C         141.7349  138.8345  163.6536 C.ar    1  UNL1        0.0156
      7 C         142.9036  139.5522  164.2612 C.ar    1  UNL1        0.0466
      8 N         142.8729  138.6279  159.8573 N.pl3   1  UNL1       -0.3061
      9 C         143.0549  139.6199  158.7469 C.3     1  UNL1        0.0923
     10 C         142.9734  138.8788  157.4453 C.3     1  UNL1        0.0391
     11 C         142.7410  137.4288  157.7512 C.3     1  UNL1        0.0790
     12 C         142.6789  137.2738  159.2419 C.3     1  UNL1        0.1067
     13 N         142.5961  136.3273  156.7434 N.3     1  UNL1       -0.2736
     14 C         143.6081  135.2587  156.4537 C.3     1  UNL1        0.0721
     15 C         143.0513  134.3719  155.3797 C.3     1  UNL1        0.0187
     16 C         141.6952  134.8925  155.0056 C.3     1  UNL1        0.0174
     17 C         141.4139  136.1010  155.8485 C.3     1  UNL1        0.0576
     18 C         140.1689  136.9365  155.8041 C.3     1  UNL1        0.0173
     19 N         142.9138  139.8602  165.7292 N.am    1  UNL1       -0.2806
     20 C         142.1729  141.0561  166.2498 C.2     1  UNL1        0.2493
     21 O         141.4217  141.9439  165.3024 O.2     1  UNL1       -0.2698
     22 H         143.4068  139.2776  166.3511 H       1  UNL1        0.1552
     23 C         142.1831  141.3642  167.7178 C.ar    1  UNL1        0.0520
     24 C         143.3411  142.1023  168.3212 C.ar    1  UNL1        0.0338
     25 C         143.3514  142.4104  169.7892 C.ar    1  UNL1        0.1403
     26 F         144.5094  143.1485  170.3925 F       1  UNL1       -0.2042
     27 C         142.2035  141.9803  170.6537 C.ar    1  UNL1        0.0293
     28 C         141.0455  141.2422  170.0503 C.ar    1  UNL1       -0.0018
     29 C         141.0353  140.9341  168.5824 C.ar    1  UNL1       -0.0173
     30 C         139.8772  140.1960  167.9790 C.3     1  UNL1        0.0312
@<TRIPOS>BOND
     1     1     2    1
     2     2     3   ar
     3     3     4   ar
     4     4     8    1
     5     8     9    1
     6     9    10    1
     7    10    11    1
     8    11    13    1
     9    13    14    1
    10    14    15    1
    11    15    16    1
    12    16    17    1
    13    17    18    1
    14    11    12    1
    15     4     5   ar
    16     5     6   ar
    17     6     7   ar
    18     7    19    1
    19    19    20   am
    20    20    21    2
    21    20    23    1
    22    23    24   ar
    23    24    25   ar
    24    25    26    1
    25    25    27   ar
    26    27    28   ar
    27    28    29   ar
    28    29    30    1
    29     7     2   ar
    30    29    23   ar
    31    12     8    1
    32    17    13    1
    33    19    22    1
@<TRIPOS>MOLECULE
*****
 30 33 0 0 0
SMALL
GASTEIGER

@<TRIPOS>ATOM
      1 C         144.9348  141.4830  162.6502 C.3     1  UNL1        0.0324
      2 C         144.1480  140.3145  162.1350 C.ar    1  UNL1       -0.0071
      3 C         144.0120  140.0947  160.6574 C.ar    1  UNL1        0.0115
      4 C         143.2252  138.9262  160.1422 C.ar    1  UNL1        0.0476
      5 C         142.5745  137.9773  161.1045 C.ar    1  UNL1        0.0158
      6 C         142.7104  138.1971  162.5821 C.ar    1  UNL1        0.0156
      7 C         143.4972  139.3656  163.0973 C.ar    1  UNL1        0.0466
      8 N         143.0893  138.7065  158.6646 N.pl3   1  UNL1       -0.3061
      9 C         143.3333  139.7294  157.5950 C.3     1  UNL1        0.0923
     10 C         143.0802  139.0804  156.2665 C.3     1  UNL1        0.0391
     11 C         142.6798  137.6563  156.5151 C.3     1  UNL1        0.0790
     12 C         142.6854  137.4252  157.9972 C.3     1  UNL1        0.1067
     13 N         142.3345  136.6415  155.4659 N.3     1  UNL1       -0.2736
     14 C         141.3678  136.8360  154.3356 C.3     1  UNL1        0.0721
     15 C         141.3311  135.5688  153.5338 C.3     1  UNL1        0.0187
     16 C         142.2751  134.5911  154.1687 C.3     1  UNL1        0.0174
     17 C         142.8953  135.2541  155.3627 C.3     1  UNL1        0.0576
     18 C         143.8998  134.6379  156.2907 C.3     1  UNL1        0.0173
     19 N         143.6332  139.5853  164.5749 N.am    1  UNL1       -0.2806
     20 C         142.5748  140.3423  165.3211 C.2     1  UNL1        0.2493
     21 O         141.3805  140.8796  164.5898 O.2     1  UNL1       -0.2698
     22 H         144.4170  139.2327  165.0549 H       1  UNL1        0.1552
     23 C         142.7108  140.5620  166.7988 C.ar    1  UNL1        0.0520
     24 C         142.3636  139.4605  167.7558 C.ar    1  UNL1        0.0338
     25 C         142.4995  139.6801  169.2334 C.ar    1  UNL1        0.1403
     26 F         142.1523  138.5786  170.1905 F       1  UNL1       -0.2042
     27 C         142.9827  141.0013  169.7539 C.ar    1  UNL1        0.0293
     28 C         143.3299  142.1029  168.7968 C.ar    1  UNL1       -0.0018
     29 C         143.1940  141.8832  167.3192 C.ar    1  UNL1       -0.0173
     30 C         143.5412  142.9848  166.3621 C.3     1  UNL1        0.0312
@<TRIPOS>BOND
     1     1     2    1
     2     2     3   ar
     3     3     4   ar
     4     4     8    1
     5     8     9    1
     6     9    10    1
     7    10    11    1
     8    11    13    1
     9    13    14    1
    10    14    15    1
    11    15    16    1
    12    16    17    1
    13    17    18    1
    14    11    12    1
    15     4     5   ar
    16     5     6   ar
    17     6     7   ar
    18     7    19    1
    19    19    20   am
    20    20    21    2
    21    20    23    1
    22    23    24   ar
    23    24    25   ar
    24    25    26    1
    25    25    27   ar
    26    27    28   ar
    27    28    29   ar
    28    29    30    1
    29     7     2   ar
    30    29    23   ar
    31    12     8    1
    32    17    13    1
    33    19    22    1
@<TRIPOS>MOLECULE
*****
 30 33 0 0 0
SMALL
GASTEIGER

@<TRIPOS>ATOM
      1 C         141.0585  137.1641  164.3264 C.3     1  UNL1        0.0324
      2 C         141.7061  138.2323  163.4961 C.ar    1  UNL1       -0.0071
      3 C         141.9040  138.0214  162.0242 C.ar    1  UNL1        0.0115
      4 C         142.5516  139.0896  161.1939 C.ar    1  UNL1        0.0476
      5 C         143.0014  140.3687  161.8353 C.ar    1  UNL1        0.0158
      6 C         142.8035  140.5796  163.3071 C.ar    1  UNL1        0.0156
      7 C         142.1559  139.5114  164.1375 C.ar    1  UNL1        0.0466
      8 N         142.7495  138.8786  159.7220 N.pl3   1  UNL1       -0.3061
      9 C         143.2988  139.8834  158.7532 C.3     1  UNL1        0.0923
     10 C         143.3216  139.2515  157.3930 C.3     1  UNL1        0.0391
     11 C         142.7863  137.8561  157.5211 C.3     1  UNL1        0.0790
     12 C         142.4328  137.6256  158.9605 C.3     1  UNL1        0.1067
     13 N         142.6317  136.8652  156.4056 N.3     1  UNL1       -0.2736
     14 C         143.7366  136.0761  155.7680 C.3     1  UNL1        0.0721
     15 C         143.1329  135.2126  154.7003 C.3     1  UNL1        0.0187
     16 C         141.6550  135.4682  154.6780 C.3     1  UNL1        0.0174
     17 C         141.3453  136.4896  155.7320 C.3     1  UNL1        0.0576
     18 C         139.9874  137.0388  156.0555 C.3     1  UNL1        0.0173
     19 N         141.9580  139.7224  165.6094 N.am    1  UNL1       -0.2806
     20 C         140.8522  140.6104  166.0978 C.2     1  UNL1        0.2493
     21 O         139.9442  141.2875  165.1144 O.2     1  UNL1       -0.2698
     22 H         142.5540  139.2781  166.2549 H       1  UNL1        0.1552
     23 C         140.6544  140.8214  167.5697 C.ar    1  UNL1        0.0520
     24 C         139.4505  140.2457  168.2547 C.ar    1  UNL1        0.0338
     25 C         139.2526  140.4567  169.7265 C.ar    1  UNL1        0.1403
     26 F         138.0487  139.8810  170.4115 F       1  UNL1       -0.2042
     27 C         140.2586  141.2433  170.5133 C.ar    1  UNL1        0.0293
     28 C         141.4625  141.8190  169.8283 C.ar    1  UNL1       -0.0018
     29 C         141.6604  141.6081  168.3565 C.ar    1  UNL1       -0.0173
     30 C         142.8643  142.1837  167.6715 C.3     1  UNL1        0.0312
@<TRIPOS>BOND
     1     1     2    1
     2     2     3   ar
     3     3     4   ar
     4     4     8    1
     5     8     9    1
     6     9    10    1
     7    10    11    1
     8    11    13    1
     9    13    14    1
    10    14    15    1
    11    15    16    1
    12    16    17    1
    13    17    18    1
    14    11    12    1
    15     4     5   ar
    16     5     6   ar
    17     6     7   ar
    18     7    19    1
    19    19    20   am
    20    20    21    2
    21    20    23    1
    22    23    24   ar
    23    24    25   ar
    24    25    26    1
    25    25    27   ar
    26    27    28   ar
    27    28    29   ar
    28    29    30    1
    29     7     2   ar
    30    29    23   ar
    31    12     8    1
    32    17    13    1
    33    19    22    1
@<TRIPOS>MOLECULE
*****
 30 33 0 0 0
SMALL
GASTEIGER

@<TRIPOS>ATOM
      1 C         144.7489  139.9065  163.7221 C.3     1  UNL1        0.0324
      2 C         143.5670  139.8254  162.8021 C.ar    1  UNL1       -0.0071
      3 C         143.7607  139.4459  161.3639 C.ar    1  UNL1        0.0115
      4 C         142.5787  139.3648  160.4439 C.ar    1  UNL1        0.0476
      5 C         141.2031  139.6632  160.9620 C.ar    1  UNL1        0.0158
      6 C         141.0094  140.0427  162.4002 C.ar    1  UNL1        0.0156
      7 C         142.1913  140.1238  163.3202 C.ar    1  UNL1        0.0466
      8 N         142.7725  138.9852  159.0056 N.pl3   1  UNL1       -0.3061
      9 C         143.3964  139.8418  157.9440 C.3     1  UNL1        0.0923
     10 C         143.3858  139.0684  156.6588 C.3     1  UNL1        0.0391
     11 C         142.7554  137.7338  156.9261 C.3     1  UNL1        0.0790
     12 C         142.3764  137.6824  158.3765 C.3     1  UNL1        0.1067
     13 N         142.5416  136.6423  155.9197 N.3     1  UNL1       -0.2736
     14 C         143.5987  135.7319  155.3685 C.3     1  UNL1        0.0721
     15 C         142.9436  134.7965  154.3960 C.3     1  UNL1        0.0187
     16 C         141.4817  135.1288  154.3461 C.3     1  UNL1        0.0174
     17 C         141.2333  136.2695  155.2879 C.3     1  UNL1        0.0576
     18 C         139.9090  136.9229  155.5515 C.3     1  UNL1        0.0173
     19 N         141.9975  140.5033  164.7585 N.am    1  UNL1       -0.2806
     20 C         141.6857  139.4476  165.7773 C.2     1  UNL1        0.2493
     21 O         141.5677  138.0122  165.3580 O.2     1  UNL1       -0.2698
     22 H         142.0750  141.4454  165.0337 H       1  UNL1        0.1552
     23 C         141.4920  139.8271  167.2155 C.ar    1  UNL1        0.0520
     24 C         142.6808  140.1367  168.0762 C.ar    1  UNL1        0.0338
     25 C         142.4871  140.5163  169.5144 C.ar    1  UNL1        0.1403
     26 F         143.6760  140.8259  170.3750 F       1  UNL1       -0.2042
     27 C         141.1046  140.5862  170.0919 C.ar    1  UNL1        0.0293
     28 C         139.9157  140.2765  169.2312 C.ar    1  UNL1       -0.0018
     29 C         140.1094  139.8970  167.7931 C.ar    1  UNL1       -0.0173
     30 C         138.9205  139.5874  166.9324 C.3     1  UNL1        0.0312
@<TRIPOS>BOND
     1     1     2    1
     2     2     3   ar
     3     3     4   ar
     4     4     8    1
     5     8     9    1
     6     9    10    1
     7    10    11    1
     8    11    13    1
     9    13    14    1
    10    14    15    1
    11    15    16    1
    12    16    17    1
    13    17    18    1
    14    11    12    1
    15     4     5   ar
    16     5     6   ar
    17     6     7   ar
    18     7    19    1
    19    19    20   am
    20    20    21    2
    21    20    23    1
    22    23    24   ar
    23    24    25   ar
    24    25    26    1
    25    25    27   ar
    26    27    28   ar
    27    28    29   ar
    28    29    30    1
    29     7     2   ar
    30    29    23   ar
    31    12     8    1
    32    17    13    1
    33    19    22    1
@<TRIPOS>MOLECULE
*****
 30 33 0 0 0
SMALL
GASTEIGER

@<TRIPOS>ATOM
      1 C         141.6590  145.1617  162.6749 C.3     1  UNL1        0.0324
      2 C         140.9205  144.3887  161.6228 C.ar    1  UNL1       -0.0071
      3 C         140.7125  144.9842  160.2619 C.ar    1  UNL1        0.0115
      4 C         139.9740  144.2112  159.2098 C.ar    1  UNL1        0.0476
      5 C         139.4433  142.8426  159.5186 C.ar    1  UNL1        0.0158
      6 C         139.6513  142.2471  160.8794 C.ar    1  UNL1        0.0156
      7 C         140.3898  143.0201  161.9316 C.ar    1  UNL1        0.0466
      8 N         139.7661  144.8068  157.8489 N.pl3   1  UNL1       -0.3061
      9 C         139.3830  144.0571  156.6074 C.3     1  UNL1        0.0923
     10 C         139.2849  145.0436  155.4818 C.3     1  UNL1        0.0391
     11 C         139.6073  146.4032  156.0276 C.3     1  UNL1        0.0790
     12 C         139.9047  146.2568  157.4905 C.3     1  UNL1        0.1067
     13 N         139.6286  147.6841  155.2474 N.3     1  UNL1       -0.2736
     14 C         138.9354  148.9590  155.6267 C.3     1  UNL1        0.0721
     15 C         139.2252  149.9779  154.5646 C.3     1  UNL1        0.0187
     16 C         140.0976  149.3326  153.5290 C.3     1  UNL1        0.0174
     17 C         140.3469  147.9150  153.9510 C.3     1  UNL1        0.0576
     18 C         141.1701  146.9054  153.2071 C.3     1  UNL1        0.0173
     19 N         140.5977  142.4245  163.2925 N.am    1  UNL1       -0.2806
     20 C         139.5348  142.5621  164.3418 C.2     1  UNL1        0.2493
     21 O         138.2639  143.2954  164.0303 O.2     1  UNL1       -0.2698
     22 H         141.4319  141.9432  163.4970 H       1  UNL1        0.1552
     23 C         139.7427  141.9665  165.7028 C.ar    1  UNL1        0.0520
     24 C         140.4686  142.7454  166.7594 C.ar    1  UNL1        0.0338
     25 C         140.6765  142.1499  168.1203 C.ar    1  UNL1        0.1403
     26 F         141.4024  142.9287  169.1769 F       1  UNL1       -0.2042
     27 C         140.1585  140.7754  168.4245 C.ar    1  UNL1        0.0293
     28 C         139.4327  139.9965  167.3679 C.ar    1  UNL1       -0.0018
     29 C         139.2247  140.5921  166.0070 C.ar    1  UNL1       -0.0173
     30 C         138.4989  139.8132  164.9504 C.3     1  UNL1        0.0312
@<TRIPOS>BOND
     1     1     2    1
     2     2     3   ar
     3     3     4   ar
     4     4     8    1
     5     8     9    1
     6     9    10    1
     7    10    11    1
     8    11    13    1
     9    13    14    1
    10    14    15    1
    11    15    16    1
    12    16    17    1
    13    17    18    1
    14    11    12    1
    15     4     5   ar
    16     5     6   ar
    17     6     7   ar
    18     7    19    1
    19    19    20   am
    20    20    21    2
    21    20    23    1
    22    23    24   ar
    23    24    25   ar
    24    25    26    1
    25    25    27   ar
    26    27    28   ar
    27    28    29   ar
    28    29    30    1
    29     7     2   ar
    30    29    23   ar
    31    12     8    1
    32    17    13    1
    33    19    22    1
@<TRIPOS>MOLECULE
*****
 30 33 0 0 0
SMALL
GASTEIGER

@<TRIPOS>ATOM
      1 C         144.0877  143.5699  162.4562 C.3     1  UNL1        0.0324
      2 C         143.8965  142.3829  161.5594 C.ar    1  UNL1       -0.0071
      3 C         144.3588  142.4380  160.1335 C.ar    1  UNL1        0.0115
      4 C         144.1676  141.2509  159.2366 C.ar    1  UNL1        0.0476
      5 C         143.5142  140.0087  159.7657 C.ar    1  UNL1        0.0158
      6 C         143.0520  139.9536  161.1916 C.ar    1  UNL1        0.0156
      7 C         143.2431  141.1407  162.0884 C.ar    1  UNL1        0.0466
      8 N         144.6299  141.3061  157.8107 N.pl3   1  UNL1       -0.3061
      9 C         144.2472  140.3479  156.7220 C.3     1  UNL1        0.0923
     10 C         144.9368  140.7788  155.4616 C.3     1  UNL1        0.0391
     11 C         145.7458  142.0034  155.7712 C.3     1  UNL1        0.0790
     12 C         145.5561  142.3293  157.2231 C.3     1  UNL1        0.1067
     13 N         146.5953  142.7679  154.7997 N.3     1  UNL1       -0.2736
     14 C         146.1141  143.8220  153.8473 C.3     1  UNL1        0.0721
     15 C         147.2966  144.3180  153.0689 C.3     1  UNL1        0.0187
     16 C         148.5085  143.5704  153.5404 C.3     1  UNL1        0.0174
     17 C         148.0751  142.6123  154.6100 C.3     1  UNL1        0.0576
     18 C         148.9652  141.6651  155.3587 C.3     1  UNL1        0.0173
     19 N         142.7808  141.0855  163.5144 N.am    1  UNL1       -0.2806
     20 C         143.7574  140.7677  164.6077 C.2     1  UNL1        0.2493
     21 O         145.1963  140.5051  164.2750 O.2     1  UNL1       -0.2698
     22 H         141.8364  141.2579  163.7327 H       1  UNL1        0.1552
     23 C         143.2951  140.7125  166.0336 C.ar    1  UNL1        0.0520
     24 C         143.1133  141.9814  166.8127 C.ar    1  UNL1        0.0338
     25 C         142.6510  141.9262  168.2386 C.ar    1  UNL1        0.1403
     26 F         142.4692  143.1951  169.0177 F       1  UNL1       -0.2042
     27 C         142.3706  140.6023  168.8854 C.ar    1  UNL1        0.0293
     28 C         142.5524  139.3334  168.1063 C.ar    1  UNL1       -0.0018
     29 C         143.0147  139.3885  166.6804 C.ar    1  UNL1       -0.0173
     30 C         143.1965  138.1197  165.9013 C.3     1  UNL1        0.0312
@<TRIPOS>BOND
     1     1     2    1
     2     2     3   ar
     3     3     4   ar
     4     4     8    1
     5     8     9    1
     6     9    10    1
     7    10    11    1
     8    11    13    1
     9    13    14    1
    10    14    15    1
    11    15    16    1
    12    16    17    1
    13    17    18    1
    14    11    12    1
    15     4     5   ar
    16     5     6   ar
    17     6     7   ar
    18     7    19    1
    19    19    20   am
    20    20    21    2
    21    20    23    1
    22    23    24   ar
    23    24    25   ar
    24    25    26    1
    25    25    27   ar
    26    27    28   ar
    27    28    29   ar
    28    29    30    1
    29     7     2   ar
    30    29    23   ar
    31    12     8    1
    32    17    13    1
    33    19    22    1
