@<TRIPOS>MOLECULE
*****
 34 38 0 0 0
SMALL
GASTEIGER

@<TRIPOS>ATOM
      1 N         140.4098  140.0342  160.0982 N.pl3   1  UNL1       -0.2464
      2 C         140.7880  139.8766  161.5411 C.2     1  UNL1        0.3157
      3 N         141.9131  140.5808  162.2397 N.2     1  UNL1       -0.0614
      4 C         141.9279  140.1264  163.6692 C.3     1  UNL1        0.2309
      5 C         140.8118  139.1413  163.8540 C.ar    1  UNL1        0.0390
      6 C         140.3461  138.3650  165.0500 C.ar    1  UNL1        0.0008
      7 C         139.1759  137.4343  164.9307 C.ar    1  UNL1        0.0021
      8 C         138.4714  137.2799  163.6155 C.ar    1  UNL1        0.0299
      9 C         138.9371  138.0562  162.4195 C.ar    1  UNL1        0.1470
     10 F         138.2326  137.9018  161.1043 F       1  UNL1       -0.2039
     11 C         140.1073  138.9869  162.5388 C.ar    1  UNL1        0.1094
     12 H         140.9201  140.6459  159.5196 H       1  UNL1        0.2884
     13 H         139.6514  139.5261  159.7297 H       1  UNL1        0.2884
     14 C         142.1873  139.8666  165.1235 C.ar    1  UNL1        0.0297
     15 C         143.1268  138.7716  165.5339 C.ar    1  UNL1        0.0004
     16 C         143.3863  138.5118  166.9883 C.ar    1  UNL1       -0.0002
     17 C         142.7061  139.3469  168.0323 C.ar    1  UNL1        0.0001
     18 C         141.7666  140.4419  167.6220 C.ar    1  UNL1        0.0028
     19 C         141.5072  140.7017  166.1676 C.ar    1  UNL1        0.0005
     20 C         141.0865  141.2771  168.6660 C.ar    1  UNL1        0.0384
     21 C         141.6169  142.6403  168.9985 C.ar    1  UNL1        0.1022
     22 N         140.9369  143.4755  170.0423 N.ar    1  UNL1       -0.2224
     23 C         139.7264  142.9476  170.7538 C.ar    1  UNL1        0.1989
     24 N         139.1960  141.5845  170.4213 N.ar    1  UNL1       -0.2224
     25 C         139.8761  140.7492  169.3774 C.ar    1  UNL1        0.1022
     26 C         143.0982  141.0572  163.7884 C.ar    1  UNL1        0.0326
     27 C         144.4958  140.5204  163.6967 C.ar    1  UNL1        0.0210
     28 C         145.6660  141.4511  163.8159 C.ar    1  UNL1        0.0985
     29 N         145.4386  142.9187  164.0268 N.ar    1  UNL1       -0.2426
     30 C         144.0410  143.4555  164.1185 C.ar    1  UNL1        0.1248
     31 C         142.8708  142.5248  163.9993 C.ar    1  UNL1        0.0207
     32 C         143.8136  144.9231  164.3294 C.3     1  UNL1        0.3581
     33 F         142.7374  145.6331  163.5628 F       1  UNL1       -0.1915
     34 F         144.6623  145.6807  165.3070 F       1  UNL1       -0.1915
@<TRIPOS>BOND
     1     1     2    1
     2     2     3    2
     3     3     4    1
     4     4    14    1
     5    14    15   ar
     6    15    16   ar
     7    16    17   ar
     8    17    18   ar
     9    18    20    1
    10    20    21   ar
    11    21    22   ar
    12    22    23   ar
    13    23    24   ar
    14    24    25   ar
    15    18    19   ar
    16     4    26    1
    17    26    27   ar
    18    27    28   ar
    19    28    29   ar
    20    29    30   ar
    21    30    32    1
    22    32    33    1
    23    32    34    1
    24    30    31   ar
    25     4     5    1
    26     5     6   ar
    27     6     7   ar
    28     7     8   ar
    29     8     9   ar
    30     9    10    1
    31     9    11   ar
    32    11     2    1
    33    19    14   ar
    34    31    26   ar
    35    11     5   ar
    36    25    20   ar
    37     1    12    1
    38     1    13    1
@<TRIPOS>MOLECULE
*****
 34 38 0 0 0
SMALL
GASTEIGER

@<TRIPOS>ATOM
      1 N         138.2947  142.8545  160.1373 N.pl3   1  UNL1       -0.2464
      2 C         139.0787  142.6182  161.3941 C.2     1  UNL1        0.3157
      3 N         139.1222  141.3408  162.1791 N.2     1  UNL1       -0.0614
      4 C         140.0273  141.5511  163.3567 C.3     1  UNL1        0.2309
      5 C         140.5432  142.9584  163.2994 C.ar    1  UNL1        0.0390
      6 C         141.4710  143.7245  164.1950 C.ar    1  UNL1        0.0008
      7 C         141.8126  145.1502  163.8776 C.ar    1  UNL1        0.0021
      8 C         141.2263  145.8097  162.6646 C.ar    1  UNL1        0.0299
      9 C         140.2985  145.0436  161.7690 C.ar    1  UNL1        0.1470
     10 F         139.7122  145.7032  160.5560 F       1  UNL1       -0.2039
     11 C         139.9569  143.6179  162.0864 C.ar    1  UNL1        0.1094
     12 H         137.7441  142.1321  159.7574 H       1  UNL1        0.2884
     13 H         138.3306  143.7319  159.6923 H       1  UNL1        0.2884
     14 C         140.8609  141.4633  164.6005 C.ar    1  UNL1        0.0297
     15 C         142.2890  141.0118  164.5161 C.ar    1  UNL1        0.0004
     16 C         143.1226  140.9240  165.7599 C.ar    1  UNL1       -0.0002
     17 C         142.5284  141.2876  167.0883 C.ar    1  UNL1        0.0001
     18 C         141.1004  141.7390  167.1729 C.ar    1  UNL1        0.0028
     19 C         140.2666  141.8268  165.9290 C.ar    1  UNL1        0.0005
     20 C         140.5060  142.1026  168.5012 C.ar    1  UNL1        0.0384
     21 C         139.7594  141.0725  169.2960 C.ar    1  UNL1        0.1022
     22 N         139.1650  141.4360  170.6243 N.ar    1  UNL1       -0.2224
     23 C         139.3173  142.8296  171.1579 C.ar    1  UNL1        0.1989
     24 N         140.0638  143.8597  170.3632 N.ar    1  UNL1       -0.2224
     25 C         140.6582  143.4962  169.0348 C.ar    1  UNL1        0.1022
     26 C         139.6856  140.1253  163.6740 C.ar    1  UNL1        0.0326
     27 C         140.0614  139.0332  162.7170 C.ar    1  UNL1        0.0210
     28 C         139.7198  137.6075  163.0344 C.ar    1  UNL1        0.0985
     29 N         139.0024  137.2740  164.3088 N.ar    1  UNL1       -0.2426
     30 C         138.6266  138.3662  165.2658 C.ar    1  UNL1        0.1248
     31 C         138.9682  139.7918  164.9484 C.ar    1  UNL1        0.0207
     32 C         137.9091  138.0327  166.5402 C.3     1  UNL1        0.3581
     33 F         137.6162  139.1115  167.5404 F       1  UNL1       -0.1915
     34 F         137.4845  136.6205  166.8144 F       1  UNL1       -0.1915
@<TRIPOS>BOND
     1     1     2    1
     2     2     3    2
     3     3     4    1
     4     4    14    1
     5    14    15   ar
     6    15    16   ar
     7    16    17   ar
     8    17    18   ar
     9    18    20    1
    10    20    21   ar
    11    21    22   ar
    12    22    23   ar
    13    23    24   ar
    14    24    25   ar
    15    18    19   ar
    16     4    26    1
    17    26    27   ar
    18    27    28   ar
    19    28    29   ar
    20    29    30   ar
    21    30    32    1
    22    32    33    1
    23    32    34    1
    24    30    31   ar
    25     4     5    1
    26     5     6   ar
    27     6     7   ar
    28     7     8   ar
    29     8     9   ar
    30     9    10    1
    31     9    11   ar
    32    11     2    1
    33    19    14   ar
    34    31    26   ar
    35    11     5   ar
    36    25    20   ar
    37     1    12    1
    38     1    13    1
@<TRIPOS>MOLECULE
*****
 34 38 0 0 0
SMALL
GASTEIGER

@<TRIPOS>ATOM
      1 N         137.8655  139.8286  170.2733 N.pl3   1  UNL1       -0.2464
      2 C         139.0073  139.9055  169.3035 C.2     1  UNL1        0.3157
      3 N         138.9369  139.6140  167.8338 N.2     1  UNL1       -0.0614
      4 C         140.3061  139.8157  167.2552 C.3     1  UNL1        0.2309
      5 C         141.2226  140.2319  168.3673 C.ar    1  UNL1        0.0390
      6 C         142.6844  140.5674  168.3908 C.ar    1  UNL1        0.0008
      7 C         143.3434  140.9585  169.6802 C.ar    1  UNL1        0.0021
      8 C         142.5407  141.0140  170.9462 C.ar    1  UNL1        0.0299
      9 C         141.0790  140.6785  170.9227 C.ar    1  UNL1        0.1470
     10 F         140.2763  140.7340  172.1886 F       1  UNL1       -0.2039
     11 C         140.4199  140.2874  169.6333 C.ar    1  UNL1        0.1094
     12 H         136.9699  139.5669  169.9594 H       1  UNL1        0.2884
     13 H         138.0118  140.0400  171.2236 H       1  UNL1        0.2884
     14 C         141.5374  139.9356  166.4071 C.ar    1  UNL1        0.0297
     15 C         142.4652  138.7658  166.2620 C.ar    1  UNL1        0.0004
     16 C         143.6965  138.8858  165.4139 C.ar    1  UNL1       -0.0002
     17 C         144.0001  140.1755  164.7107 C.ar    1  UNL1        0.0001
     18 C         143.0725  141.3452  164.8557 C.ar    1  UNL1        0.0028
     19 C         141.8410  141.2253  165.7039 C.ar    1  UNL1        0.0005
     20 C         143.3760  142.6350  164.1525 C.ar    1  UNL1        0.0384
     21 C         143.3912  142.6863  162.6534 C.ar    1  UNL1        0.1022
     22 N         143.6948  143.9759  161.9502 N.ar    1  UNL1       -0.2224
     23 C         143.9831  145.2143  162.7461 C.ar    1  UNL1        0.1989
     24 N         143.9679  145.1630  164.2451 N.ar    1  UNL1       -0.2224
     25 C         143.6643  143.8733  164.9483 C.ar    1  UNL1        0.1022
     26 C         139.6469  139.4246  165.9658 C.ar    1  UNL1        0.0326
     27 C         139.7095  138.0025  165.4926 C.ar    1  UNL1        0.0210
     28 C         139.0504  137.6115  164.2032 C.ar    1  UNL1        0.0985
     29 N         138.3287  138.6425  163.3870 N.ar    1  UNL1       -0.2426
     30 C         138.2661  140.0645  163.8601 C.ar    1  UNL1        0.1248
     31 C         138.9252  140.4555  165.1495 C.ar    1  UNL1        0.0207
     32 C         137.5444  141.0954  163.0439 C.3     1  UNL1        0.3581
     33 F         137.3286  140.8736  161.5762 F       1  UNL1       -0.1915
     34 F         137.0384  142.3482  163.6953 F       1  UNL1       -0.1915
@<TRIPOS>BOND
     1     1     2    1
     2     2     3    2
     3     3     4    1
     4     4    14    1
     5    14    15   ar
     6    15    16   ar
     7    16    17   ar
     8    17    18   ar
     9    18    20    1
    10    20    21   ar
    11    21    22   ar
    12    22    23   ar
    13    23    24   ar
    14    24    25   ar
    15    18    19   ar
    16     4    26    1
    17    26    27   ar
    18    27    28   ar
    19    28    29   ar
    20    29    30   ar
    21    30    32    1
    22    32    33    1
    23    32    34    1
    24    30    31   ar
    25     4     5    1
    26     5     6   ar
    27     6     7   ar
    28     7     8   ar
    29     8     9   ar
    30     9    10    1
    31     9    11   ar
    32    11     2    1
    33    19    14   ar
    34    31    26   ar
    35    11     5   ar
    36    25    20   ar
    37     1    12    1
    38     1    13    1
@<TRIPOS>MOLECULE
*****
 34 38 0 0 0
SMALL
GASTEIGER

@<TRIPOS>ATOM
      1 N         142.1088  145.1246  161.3320 N.pl3   1  UNL1       -0.2464
      2 C         141.5301  144.0140  162.1576 C.2     1  UNL1        0.3157
      3 N         142.2211  142.7333  162.5211 N.2     1  UNL1       -0.0614
      4 C         141.2768  141.9170  163.3529 C.3     1  UNL1        0.2309
      5 C         140.0021  142.6932  163.5035 C.ar    1  UNL1        0.0390
      6 C         138.7191  142.3873  164.2178 C.ar    1  UNL1        0.0008
      7 C         137.5927  143.3775  164.1934 C.ar    1  UNL1        0.0021
      8 C         137.7492  144.6736  163.4547 C.ar    1  UNL1        0.0299
      9 C         139.0322  144.9795  162.7404 C.ar    1  UNL1        0.1470
     10 F         139.1888  146.2755  162.0017 F       1  UNL1       -0.2039
     11 C         140.1586  143.9893  162.7648 C.ar    1  UNL1        0.1094
     12 H         143.0233  145.0478  160.9754 H       1  UNL1        0.2884
     13 H         141.5742  145.9302  161.1466 H       1  UNL1        0.2884
     14 C         140.5679  140.8937  164.1897 C.ar    1  UNL1        0.0297
     15 C         139.7448  139.8262  163.5316 C.ar    1  UNL1        0.0004
     16 C         139.0360  138.8029  164.3685 C.ar    1  UNL1       -0.0002
     17 C         139.1502  138.8470  165.8635 C.ar    1  UNL1        0.0001
     18 C         139.9733  139.9144  166.5216 C.ar    1  UNL1        0.0028
     19 C         140.6822  140.9378  165.6848 C.ar    1  UNL1        0.0005
     20 C         140.0876  139.9586  168.0166 C.ar    1  UNL1        0.0384
     21 C         141.4400  139.9966  168.6645 C.ar    1  UNL1        0.1022
     22 N         141.5545  140.0408  170.1594 N.ar    1  UNL1       -0.2224
     23 C         140.3165  140.0470  171.0065 C.ar    1  UNL1        0.1989
     24 N         138.9642  140.0089  170.3586 N.ar    1  UNL1       -0.2224
     25 C         138.8497  139.9647  168.8636 C.ar    1  UNL1        0.1022
     26 C         142.4033  140.9268  163.3772 C.ar    1  UNL1        0.0326
     27 C         143.4278  140.9831  164.4714 C.ar    1  UNL1        0.0210
     28 C         144.5542  139.9929  164.4957 C.ar    1  UNL1        0.0985
     29 N         144.6562  138.9464  163.4258 N.ar    1  UNL1       -0.2426
     30 C         143.6317  138.8902  162.3317 C.ar    1  UNL1        0.1248
     31 C         142.5052  139.8803  162.3074 C.ar    1  UNL1        0.0207
     32 C         143.7336  137.8437  161.2619 C.3     1  UNL1        0.3581
     33 F         142.6925  137.7684  160.1847 F       1  UNL1       -0.1915
     34 F         144.8767  136.8725  161.2692 F       1  UNL1       -0.1915
@<TRIPOS>BOND
     1     1     2    1
     2     2     3    2
     3     3     4    1
     4     4    14    1
     5    14    15   ar
     6    15    16   ar
     7    16    17   ar
     8    17    18   ar
     9    18    20    1
    10    20    21   ar
    11    21    22   ar
    12    22    23   ar
    13    23    24   ar
    14    24    25   ar
    15    18    19   ar
    16     4    26    1
    17    26    27   ar
    18    27    28   ar
    19    28    29   ar
    20    29    30   ar
    21    30    32    1
    22    32    33    1
    23    32    34    1
    24    30    31   ar
    25     4     5    1
    26     5     6   ar
    27     6     7   ar
    28     7     8   ar
    29     8     9   ar
    30     9    10    1
    31     9    11   ar
    32    11     2    1
    33    19    14   ar
    34    31    26   ar
    35    11     5   ar
    36    25    20   ar
    37     1    12    1
    38     1    13    1
@<TRIPOS>MOLECULE
*****
 34 38 0 0 0
SMALL
GASTEIGER

@<TRIPOS>ATOM
      1 N         141.4448  141.6990  169.4069 N.pl3   1  UNL1       -0.2464
      2 C         141.2414  140.9882  168.1018 C.2     1  UNL1        0.3157
      3 N         142.1881  140.9931  166.9383 N.2     1  UNL1       -0.0614
      4 C         141.5874  140.1556  165.8485 C.3     1  UNL1        0.2309
      5 C         140.2695  139.6331  166.3385 C.ar    1  UNL1        0.0390
      6 C         139.2365  138.7552  165.6964 C.ar    1  UNL1        0.0008
      7 C         137.9897  138.3919  166.4470 C.ar    1  UNL1        0.0021
      8 C         137.7758  138.9065  167.8397 C.ar    1  UNL1        0.0299
      9 C         138.8088  139.7844  168.4817 C.ar    1  UNL1        0.1470
     10 F         138.5950  140.2990  169.8744 F       1  UNL1       -0.2039
     11 C         140.0556  140.1477  167.7311 C.ar    1  UNL1        0.1094
     12 H         142.2606  142.2293  169.5568 H       1  UNL1        0.2884
     13 H         140.7624  141.6353  170.1137 H       1  UNL1        0.2884
     14 C         141.2474  139.3940  164.6018 C.ar    1  UNL1        0.0297
     15 C         141.5656  137.9312  164.5061 C.ar    1  UNL1        0.0004
     16 C         141.2256  137.1697  163.2594 C.ar    1  UNL1       -0.0002
     17 C         140.5673  137.8708  162.1082 C.ar    1  UNL1        0.0001
     18 C         140.2490  139.3336  162.2038 C.ar    1  UNL1        0.0028
     19 C         140.5891  140.0952  163.4506 C.ar    1  UNL1        0.0005
     20 C         139.5908  140.0348  161.0528 C.ar    1  UNL1        0.0384
     21 C         138.8167  139.2466  160.0380 C.ar    1  UNL1        0.1022
     22 N         138.1584  139.9477  158.8870 N.ar    1  UNL1       -0.2224
     23 C         138.2742  141.4371  158.7506 C.ar    1  UNL1        0.1989
     24 N         139.0482  142.2252  159.7654 N.ar    1  UNL1       -0.2224
     25 C         139.7065  141.5240  160.9165 C.ar    1  UNL1        0.1022
     26 C         142.8343  140.5189  165.0979 C.ar    1  UNL1        0.0326
     27 C         143.9256  139.5052  164.9213 C.ar    1  UNL1        0.0210
     28 C         145.1724  139.8685  164.1707 C.ar    1  UNL1        0.0985
     29 N         145.3279  141.2456  163.5967 N.ar    1  UNL1       -0.2426
     30 C         144.2365  142.2594  163.7734 C.ar    1  UNL1        0.1248
     31 C         142.9897  141.8960  164.5240 C.ar    1  UNL1        0.0207
     32 C         144.3920  143.6365  163.1994 C.3     1  UNL1        0.3581
     33 F         144.8085  143.8102  161.7689 F       1  UNL1       -0.1915
     34 F         144.1311  144.8399  164.0560 F       1  UNL1       -0.1915
@<TRIPOS>BOND
     1     1     2    1
     2     2     3    2
     3     3     4    1
     4     4    14    1
     5    14    15   ar
     6    15    16   ar
     7    16    17   ar
     8    17    18   ar
     9    18    20    1
    10    20    21   ar
    11    21    22   ar
    12    22    23   ar
    13    23    24   ar
    14    24    25   ar
    15    18    19   ar
    16     4    26    1
    17    26    27   ar
    18    27    28   ar
    19    28    29   ar
    20    29    30   ar
    21    30    32    1
    22    32    33    1
    23    32    34    1
    24    30    31   ar
    25     4     5    1
    26     5     6   ar
    27     6     7   ar
    28     7     8   ar
    29     8     9   ar
    30     9    10    1
    31     9    11   ar
    32    11     2    1
    33    19    14   ar
    34    31    26   ar
    35    11     5   ar
    36    25    20   ar
    37     1    12    1
    38     1    13    1
@<TRIPOS>MOLECULE
*****
 34 38 0 0 0
SMALL
GASTEIGER

@<TRIPOS>ATOM
      1 N         136.9774  137.5382  167.6490 N.pl3   1  UNL1       -0.2464
      2 C         138.0235  138.4341  167.0549 C.2     1  UNL1        0.3157
      3 N         138.5516  138.3637  165.6527 N.2     1  UNL1       -0.0614
      4 C         139.5796  139.4438  165.4899 C.3     1  UNL1        0.2309
      5 C         139.6869  140.1817  166.7914 C.ar    1  UNL1        0.0390
      6 C         140.5361  141.3412  167.2208 C.ar    1  UNL1        0.0008
      7 C         140.4235  141.8766  168.6174 C.ar    1  UNL1        0.0021
      8 C         139.4617  141.2525  169.5847 C.ar    1  UNL1        0.0299
      9 C         138.6125  140.0931  169.1553 C.ar    1  UNL1        0.1470
     10 F         137.6508  139.4690  170.1225 F       1  UNL1       -0.2039
     11 C         138.7251  139.5576  167.7587 C.ar    1  UNL1        0.1094
     12 H         136.5731  136.8247  167.1042 H       1  UNL1        0.2884
     13 H         136.6950  137.6636  168.5838 H       1  UNL1        0.2884
     14 C         140.6312  140.4119  165.0351 C.ar    1  UNL1        0.0297
     15 C         142.0452  140.2628  165.5133 C.ar    1  UNL1        0.0004
     16 C         143.0968  141.2310  165.0585 C.ar    1  UNL1       -0.0002
     17 C         142.7345  142.3482  164.1255 C.ar    1  UNL1        0.0001
     18 C         141.3206  142.4974  163.6473 C.ar    1  UNL1        0.0028
     19 C         140.2689  141.5292  164.1021 C.ar    1  UNL1        0.0005
     20 C         140.9582  143.6146  162.7143 C.ar    1  UNL1        0.0384
     21 C         139.6718  144.3625  162.9039 C.ar    1  UNL1        0.1022
     22 N         139.3093  145.4797  161.9710 N.ar    1  UNL1       -0.2224
     23 C         140.2332  145.8491  160.8485 C.ar    1  UNL1        0.1989
     24 N         141.5196  145.1012  160.6589 N.ar    1  UNL1       -0.2224
     25 C         141.8821  143.9839  161.5919 C.ar    1  UNL1        0.1022
     26 C         139.6922  138.9083  164.0932 C.ar    1  UNL1        0.0326
     27 C         138.4564  138.6922  163.2709 C.ar    1  UNL1        0.0210
     28 C         138.5690  138.1568  161.8743 C.ar    1  UNL1        0.0985
     29 N         139.9174  137.8374  161.3000 N.ar    1  UNL1       -0.2426
     30 C         141.1532  138.0534  162.1222 C.ar    1  UNL1        0.1248
     31 C         141.0405  138.5889  163.5188 C.ar    1  UNL1        0.0207
     32 C         142.5015  137.7340  161.5479 C.3     1  UNL1        0.3581
     33 F         143.7393  137.9779  162.3593 F       1  UNL1       -0.1915
     34 F         142.6121  137.1707  160.1621 F       1  UNL1       -0.1915
@<TRIPOS>BOND
     1     1     2    1
     2     2     3    2
     3     3     4    1
     4     4    14    1
     5    14    15   ar
     6    15    16   ar
     7    16    17   ar
     8    17    18   ar
     9    18    20    1
    10    20    21   ar
    11    21    22   ar
    12    22    23   ar
    13    23    24   ar
    14    24    25   ar
    15    18    19   ar
    16     4    26    1
    17    26    27   ar
    18    27    28   ar
    19    28    29   ar
    20    29    30   ar
    21    30    32    1
    22    32    33    1
    23    32    34    1
    24    30    31   ar
    25     4     5    1
    26     5     6   ar
    27     6     7   ar
    28     7     8   ar
    29     8     9   ar
    30     9    10    1
    31     9    11   ar
    32    11     2    1
    33    19    14   ar
    34    31    26   ar
    35    11     5   ar
    36    25    20   ar
    37     1    12    1
    38     1    13    1
@<TRIPOS>MOLECULE
*****
 34 38 0 0 0
SMALL
GASTEIGER

@<TRIPOS>ATOM
      1 N         136.6450  137.5867  168.0820 N.pl3   1  UNL1       -0.2464
      2 C         137.7602  138.4230  167.5279 C.2     1  UNL1        0.3157
      3 N         138.3509  138.3064  166.1541 N.2     1  UNL1       -0.0614
      4 C         139.4362  139.3341  166.0276 C.3     1  UNL1        0.2309
      5 C         139.5162  140.0858  167.3232 C.ar    1  UNL1        0.0390
      6 C         140.3985  141.2102  167.7784 C.ar    1  UNL1        0.0008
      7 C         140.2449  141.7715  169.1609 C.ar    1  UNL1        0.0021
      8 C         139.2090  141.2083  170.0882 C.ar    1  UNL1        0.0299
      9 C         138.3267  140.0839  169.6330 C.ar    1  UNL1        0.1470
     10 F         137.2909  139.5208  170.5603 F       1  UNL1       -0.2039
     11 C         138.4804  139.5226  168.2505 C.ar    1  UNL1        0.1094
     12 H         136.2336  136.8850  167.5274 H       1  UNL1        0.2884
     13 H         136.3245  137.7394  169.0002 H       1  UNL1        0.2884
     14 C         140.5536  140.2444  165.6121 C.ar    1  UNL1        0.0297
     15 C         141.9505  139.9855  166.0937 C.ar    1  UNL1        0.0004
     16 C         143.0679  140.8958  165.6781 C.ar    1  UNL1       -0.0002
     17 C         142.7886  142.0650  164.7810 C.ar    1  UNL1        0.0001
     18 C         141.3918  142.3240  164.2993 C.ar    1  UNL1        0.0028
     19 C         140.2743  141.4136  164.7149 C.ar    1  UNL1        0.0005
     20 C         141.1123  143.4932  163.4022 C.ar    1  UNL1        0.0384
     21 C         142.1059  143.8843  162.3486 C.ar    1  UNL1        0.1022
     22 N         141.8266  145.0534  161.4514 N.ar    1  UNL1       -0.2224
     23 C         140.5536  145.8315  161.6078 C.ar    1  UNL1        0.1989
     24 N         139.5602  145.4403  162.6613 N.ar    1  UNL1       -0.2224
     25 C         139.8395  144.2711  163.5585 C.ar    1  UNL1        0.1022
     26 C         139.5898  138.7727  164.6451 C.ar    1  UNL1        0.0326
     27 C         140.6990  137.8082  164.3462 C.ar    1  UNL1        0.0210
     28 C         140.8525  137.2469  162.9637 C.ar    1  UNL1        0.0985
     29 N         139.8969  137.6501  161.8801 N.ar    1  UNL1       -0.2426
     30 C         138.7878  138.6147  162.1789 C.ar    1  UNL1        0.1248
     31 C         138.6343  139.1760  163.5614 C.ar    1  UNL1        0.0207
     32 C         137.8322  139.0180  161.0953 C.3     1  UNL1        0.3581
     33 F         136.5104  138.3214  160.9635 F       1  UNL1       -0.1915
     34 F         138.1985  140.1179  160.1435 F       1  UNL1       -0.1915
@<TRIPOS>BOND
     1     1     2    1
     2     2     3    2
     3     3     4    1
     4     4    14    1
     5    14    15   ar
     6    15    16   ar
     7    16    17   ar
     8    17    18   ar
     9    18    20    1
    10    20    21   ar
    11    21    22   ar
    12    22    23   ar
    13    23    24   ar
    14    24    25   ar
    15    18    19   ar
    16     4    26    1
    17    26    27   ar
    18    27    28   ar
    19    28    29   ar
    20    29    30   ar
    21    30    32    1
    22    32    33    1
    23    32    34    1
    24    30    31   ar
    25     4     5    1
    26     5     6   ar
    27     6     7   ar
    28     7     8   ar
    29     8     9   ar
    30     9    10    1
    31     9    11   ar
    32    11     2    1
    33    19    14   ar
    34    31    26   ar
    35    11     5   ar
    36    25    20   ar
    37     1    12    1
    38     1    13    1
@<TRIPOS>MOLECULE
*****
 34 38 0 0 0
SMALL
GASTEIGER

@<TRIPOS>ATOM
      1 N         138.5485  139.9545  170.1557 N.pl3   1  UNL1       -0.2464
      2 C         139.4961  140.2609  169.0340 C.2     1  UNL1        0.3157
      3 N         139.3316  139.8447  167.6024 N.2     1  UNL1       -0.0614
      4 C         140.5084  140.3640  166.8307 C.3     1  UNL1        0.2309
      5 C         141.4001  141.1012  167.7854 C.ar    1  UNL1        0.0390
      6 C         142.7009  141.8222  167.5907 C.ar    1  UNL1        0.0008
      7 C         143.3761  142.4795  168.7577 C.ar    1  UNL1        0.0021
      8 C         142.7504  142.4158  170.1195 C.ar    1  UNL1        0.0299
      9 C         141.4496  141.6948  170.3142 C.ar    1  UNL1        0.1470
     10 F         140.8239  141.6311  171.6760 F       1  UNL1       -0.2039
     11 C         140.7744  141.0375  169.1472 C.ar    1  UNL1        0.1094
     12 H         137.7307  139.4349  169.9812 H       1  UNL1        0.2884
     13 H         138.7444  140.2729  171.0665 H       1  UNL1        0.2884
     14 C         141.5440  140.7459  165.8150 C.ar    1  UNL1        0.0297
     15 C         142.8830  140.0696  165.8182 C.ar    1  UNL1        0.0004
     16 C         143.9186  140.4514  164.8025 C.ar    1  UNL1       -0.0002
     17 C         143.6153  141.5096  163.7835 C.ar    1  UNL1        0.0001
     18 C         142.2764  142.1859  163.7802 C.ar    1  UNL1        0.0028
     19 C         141.2407  141.8040  164.7960 C.ar    1  UNL1        0.0005
     20 C         141.9731  143.2441  162.7612 C.ar    1  UNL1        0.0384
     21 C         140.9517  144.3014  163.0594 C.ar    1  UNL1        0.1022
     22 N         140.6483  145.3596  162.0406 N.ar    1  UNL1       -0.2224
     23 C         141.3662  145.3604  160.7235 C.ar    1  UNL1        0.1989
     24 N         142.3875  144.3031  160.4254 N.ar    1  UNL1       -0.2224
     25 C         142.6910  143.2448  161.4443 C.ar    1  UNL1        0.1022
     26 C         139.8332  139.7067  165.6636 C.ar    1  UNL1        0.0326
     27 C         140.0208  138.2389  165.4177 C.ar    1  UNL1        0.0210
     28 C         139.3456  137.5816  164.2507 C.ar    1  UNL1        0.0985
     29 N         138.4828  138.3921  163.3295 N.ar    1  UNL1       -0.2426
     30 C         138.2952  139.8599  163.5753 C.ar    1  UNL1        0.1248
     31 C         138.9704  140.5171  164.7423 C.ar    1  UNL1        0.0207
     32 C         137.4323  140.6703  162.6541 C.3     1  UNL1        0.3581
     33 F         137.1539  140.1815  161.2636 F       1  UNL1       -0.1915
     34 F         136.8479  141.9696  163.1233 F       1  UNL1       -0.1915
@<TRIPOS>BOND
     1     1     2    1
     2     2     3    2
     3     3     4    1
     4     4    14    1
     5    14    15   ar
     6    15    16   ar
     7    16    17   ar
     8    17    18   ar
     9    18    20    1
    10    20    21   ar
    11    21    22   ar
    12    22    23   ar
    13    23    24   ar
    14    24    25   ar
    15    18    19   ar
    16     4    26    1
    17    26    27   ar
    18    27    28   ar
    19    28    29   ar
    20    29    30   ar
    21    30    32    1
    22    32    33    1
    23    32    34    1
    24    30    31   ar
    25     4     5    1
    26     5     6   ar
    27     6     7   ar
    28     7     8   ar
    29     8     9   ar
    30     9    10    1
    31     9    11   ar
    32    11     2    1
    33    19    14   ar
    34    31    26   ar
    35    11     5   ar
    36    25    20   ar
    37     1    12    1
    38     1    13    1
@<TRIPOS>MOLECULE
*****
 34 38 0 0 0
SMALL
GASTEIGER

@<TRIPOS>ATOM
      1 N         141.9071  144.8675  160.9728 N.pl3   1  UNL1       -0.2464
      2 C         141.3277  143.8071  161.8615 C.2     1  UNL1        0.3157
      3 N         141.9587  142.4849  162.1834 N.2     1  UNL1       -0.0614
      4 C         141.0364  141.7435  163.1052 C.3     1  UNL1        0.2309
      5 C         139.8355  142.6074  163.3530 C.ar    1  UNL1        0.0390
      6 C         138.6013  142.3975  164.1792 C.ar    1  UNL1        0.0008
      7 C         137.5471  143.4630  164.2368 C.ar    1  UNL1        0.0021
      8 C         137.7271  144.7384  163.4681 C.ar    1  UNL1        0.0299
      9 C         138.9613  144.9483  162.6419 C.ar    1  UNL1        0.1470
     10 F         139.1413  146.2238  161.8732 F       1  UNL1       -0.2039
     11 C         140.0155  143.8828  162.5843 C.ar    1  UNL1        0.1094
     12 H         142.7799  144.7244  160.5403 H       1  UNL1        0.2884
     13 H         141.4147  145.7065  160.8219 H       1  UNL1        0.2884
     14 C         140.3346  140.7792  164.0150 C.ar    1  UNL1        0.0297
     15 C         139.4558  139.7086  163.4390 C.ar    1  UNL1        0.0004
     16 C         138.7540  138.7444  164.3488 C.ar    1  UNL1       -0.0002
     17 C         138.9309  138.8507  165.8345 C.ar    1  UNL1        0.0001
     18 C         139.8097  139.9212  166.4105 C.ar    1  UNL1        0.0028
     19 C         140.5115  140.8855  165.5007 C.ar    1  UNL1        0.0005
     20 C         139.9866  140.0276  167.8962 C.ar    1  UNL1        0.0384
     21 C         138.8016  139.8845  168.8048 C.ar    1  UNL1        0.1022
     22 N         138.9785  139.9908  170.2904 N.ar    1  UNL1       -0.2224
     23 C         140.3404  140.2403  170.8676 C.ar    1  UNL1        0.1989
     24 N         141.5253  140.3834  169.9591 N.ar    1  UNL1       -0.2224
     25 C         141.3484  140.2770  168.4734 C.ar    1  UNL1        0.1022
     26 C         142.0907  140.6779  163.0476 C.ar    1  UNL1        0.0326
     27 C         142.4783  140.0768  161.7292 C.ar    1  UNL1        0.0210
     28 C         143.5325  139.0113  161.6717 C.ar    1  UNL1        0.0985
     29 N         144.1991  138.5470  162.9326 N.ar    1  UNL1       -0.2426
     30 C         143.8115  139.1481  164.2511 C.ar    1  UNL1        0.1248
     31 C         142.7573  140.2135  164.3086 C.ar    1  UNL1        0.0207
     32 C         144.4781  138.6837  165.5120 C.3     1  UNL1        0.3581
     33 F         145.9542  138.4174  165.5257 F       1  UNL1       -0.1915
     34 F         143.6687  138.4857  166.7592 F       1  UNL1       -0.1915
@<TRIPOS>BOND
     1     1     2    1
     2     2     3    2
     3     3     4    1
     4     4    14    1
     5    14    15   ar
     6    15    16   ar
     7    16    17   ar
     8    17    18   ar
     9    18    20    1
    10    20    21   ar
    11    21    22   ar
    12    22    23   ar
    13    23    24   ar
    14    24    25   ar
    15    18    19   ar
    16     4    26    1
    17    26    27   ar
    18    27    28   ar
    19    28    29   ar
    20    29    30   ar
    21    30    32    1
    22    32    33    1
    23    32    34    1
    24    30    31   ar
    25     4     5    1
    26     5     6   ar
    27     6     7   ar
    28     7     8   ar
    29     8     9   ar
    30     9    10    1
    31     9    11   ar
    32    11     2    1
    33    19    14   ar
    34    31    26   ar
    35    11     5   ar
    36    25    20   ar
    37     1    12    1
    38     1    13    1
