@<TRIPOS>MOLECULE
*****
 34 37 0 0 0
SMALL
GASTEIGER

@<TRIPOS>ATOM
      1 C         142.1326  143.9784  161.5429 C.3     1  UNL1        0.1751
      2 C         141.9971  144.1724  160.0617 C.ar    1  UNL1        0.0089
      3 C         142.7330  143.5742  158.8996 C.ar    1  UNL1       -0.0021
      4 C         142.3692  143.9677  157.4986 C.ar    1  UNL1       -0.0003
      5 C         141.2695  144.9594  157.2597 C.ar    1  UNL1        0.0001
      6 C         140.5336  145.5577  158.4218 C.ar    1  UNL1        0.0043
      7 C         140.8974  145.1642  159.8228 C.ar    1  UNL1        0.0516
      8 C         140.3533  145.5830  161.1564 C.2     1  UNL1        0.2493
      9 O         139.2410  146.5628  161.3865 O.2     1  UNL1       -0.2699
     10 N         141.1166  144.8502  162.2195 N.am    1  UNL1       -0.2657
     11 O         144.4737  143.5809  162.5970 O.2     1  UNL1       -0.2729
     12 C         143.1121  143.0717  162.2273 C.2     1  UNL1        0.2451
     13 N         142.7300  141.6557  162.5421 N.am    1  UNL1       -0.2988
     14 H         141.8363  141.3214  162.2995 H       1  UNL1        0.1498
     15 C         143.7095  140.7490  163.2266 C.3     1  UNL1        0.1164
     16 C         143.4680  140.3161  164.6423 C.ar    1  UNL1       -0.0024
     17 C         143.6938  138.8872  165.0386 C.ar    1  UNL1        0.0005
     18 C         143.4523  138.4544  166.4544 C.ar    1  UNL1        0.0369
     19 C         142.9849  139.4506  167.4739 C.ar    1  UNL1        0.1468
     20 C         142.7591  140.8795  167.0775 C.ar    1  UNL1        0.0369
     21 C         143.0006  141.3123  165.6617 C.ar    1  UNL1        0.0005
     22 O         142.7434  139.0178  168.8896 O.3     1  UNL1       -0.4045
     23 C         142.0954  139.9588  169.8614 C.3     1  UNL1        0.5753
     24 F         141.4473  140.8998  170.8333 F       1  UNL1       -0.1328
     25 F         143.4480  140.3948  170.3412 F       1  UNL1       -0.1328
     26 F         140.7427  139.5227  169.3817 F       1  UNL1       -0.1328
     27 C         140.9018  144.9684  163.6993 C.3     1  UNL1        0.1008
     28 C         139.6341  144.4565  164.3164 C.3     1  UNL1        0.0689
     29 C         139.0658  143.1390  163.8790 C.ar    1  UNL1        0.0798
     30 C         137.6631  143.0649  163.3527 C.ar    1  UNL1        0.1136
     31 N         137.0948  141.7474  162.9153 N.ar    1  UNL1       -0.2395
     32 C         137.9292  140.5040  163.0043 C.ar    1  UNL1        0.1195
     33 C         139.3318  140.5782  163.5306 C.ar    1  UNL1        0.1191
     34 N         139.9001  141.8957  163.9680 N.ar    1  UNL1       -0.2449
@<TRIPOS>BOND
     1    11    12    2
     2    12    13   am
     3    13    15    1
     4    15    16    1
     5    16    17   ar
     6    17    18   ar
     7    18    19   ar
     8    19    22    1
     9    22    23    1
    10    23    24    1
    11    23    25    1
    12    23    26    1
    13    19    20   ar
    14    20    21   ar
    15    12     1    1
    16     1     2    1
    17     2     3   ar
    18     3     4   ar
    19     4     5   ar
    20     5     6   ar
    21     6     7   ar
    22     7     8    1
    23     8     9    2
    24     8    10   am
    25    10    27    1
    26    27    28    1
    27    28    29    1
    28    29    30   ar
    29    30    31   ar
    30    31    32   ar
    31    32    33   ar
    32    33    34   ar
    33    21    16   ar
    34    10     1    1
    35    34    29   ar
    36     7     2   ar
    37    13    14    1
@<TRIPOS>MOLECULE
*****
 34 37 0 0 0
SMALL
GASTEIGER

@<TRIPOS>ATOM
      1 C         141.5950  143.6748  162.0482 C.3     1  UNL1        0.1751
      2 C         141.9116  143.9320  160.6047 C.ar    1  UNL1        0.0089
      3 C         142.8554  143.2636  159.6496 C.ar    1  UNL1       -0.0021
      4 C         142.9603  143.7504  158.2347 C.ar    1  UNL1       -0.0003
      5 C         142.1213  144.9057  157.7749 C.ar    1  UNL1        0.0001
      6 C         141.1775  145.5742  158.7300 C.ar    1  UNL1        0.0043
      7 C         141.0726  145.0874  160.1449 C.ar    1  UNL1        0.0516
      8 C         140.2375  145.5441  161.3042 C.2     1  UNL1        0.2493
      9 O         139.2525  146.6753  161.2898 O.2     1  UNL1       -0.2699
     10 N         140.5603  144.6711  162.4805 N.am    1  UNL1       -0.2657
     11 O         141.6532  141.2143  162.8803 O.2     1  UNL1       -0.2729
     12 C         142.2058  142.6084  162.9083 C.2     1  UNL1        0.2451
     13 N         143.3693  142.9363  163.7965 N.am    1  UNL1       -0.2988
     14 H         143.7321  143.8513  163.8149 H       1  UNL1        0.1498
     15 C         143.9801  141.8699  164.6566 C.3     1  UNL1        0.1164
     16 C         143.2260  141.3363  165.8383 C.ar    1  UNL1       -0.0024
     17 C         143.0960  139.8554  166.0386 C.ar    1  UNL1        0.0005
     18 C         142.3419  139.3219  167.2204 C.ar    1  UNL1        0.0369
     19 C         141.7177  140.2691  168.2019 C.ar    1  UNL1        0.1468
     20 C         141.8478  141.7500  168.0016 C.ar    1  UNL1        0.0369
     21 C         142.6020  142.2836  166.8197 C.ar    1  UNL1        0.0005
     22 O         140.9637  139.7355  169.3836 O.3     1  UNL1       -0.4045
     23 C         139.6675  140.3688  169.7945 C.3     1  UNL1        0.5753
     24 F         138.3713  141.0021  170.2055 F       1  UNL1       -0.1328
     25 F         140.3393  140.9639  170.9964 F       1  UNL1       -0.1328
     26 F         138.9957  139.7736  168.5927 F       1  UNL1       -0.1328
     27 C         139.9549  144.7760  163.8489 C.3     1  UNL1        0.1008
     28 C         138.6526  144.0940  164.1471 C.3     1  UNL1        0.0689
     29 C         138.5853  142.5965  164.2013 C.ar    1  UNL1        0.0798
     30 C         137.8220  141.8416  163.1537 C.ar    1  UNL1        0.1136
     31 N         137.7547  140.3441  163.2079 N.ar    1  UNL1       -0.2395
     32 C         138.4508  139.6015  164.3098 C.ar    1  UNL1        0.1195
     33 C         139.2141  140.3564  165.3574 C.ar    1  UNL1        0.1191
     34 N         139.2814  141.8539  165.3031 N.ar    1  UNL1       -0.2449
@<TRIPOS>BOND
     1    11    12    2
     2    12    13   am
     3    13    15    1
     4    15    16    1
     5    16    17   ar
     6    17    18   ar
     7    18    19   ar
     8    19    22    1
     9    22    23    1
    10    23    24    1
    11    23    25    1
    12    23    26    1
    13    19    20   ar
    14    20    21   ar
    15    12     1    1
    16     1     2    1
    17     2     3   ar
    18     3     4   ar
    19     4     5   ar
    20     5     6   ar
    21     6     7   ar
    22     7     8    1
    23     8     9    2
    24     8    10   am
    25    10    27    1
    26    27    28    1
    27    28    29    1
    28    29    30   ar
    29    30    31   ar
    30    31    32   ar
    31    32    33   ar
    32    33    34   ar
    33    21    16   ar
    34    10     1    1
    35    34    29   ar
    36     7     2   ar
    37    13    14    1
@<TRIPOS>MOLECULE
*****
 34 37 0 0 0
SMALL
GASTEIGER

@<TRIPOS>ATOM
      1 C         141.2577  140.7270  166.6540 C.3     1  UNL1        0.1751
      2 C         141.0870  141.4639  167.9493 C.ar    1  UNL1        0.0089
      3 C         141.8653  142.5812  168.5784 C.ar    1  UNL1       -0.0021
      4 C         141.4486  143.1274  169.9119 C.ar    1  UNL1       -0.0003
      5 C         140.2537  142.5563  170.6161 C.ar    1  UNL1        0.0001
      6 C         139.4754  141.4390  169.9869 C.ar    1  UNL1        0.0043
      7 C         139.8920  140.8929  168.6535 C.ar    1  UNL1        0.0516
      8 C         139.3242  139.8030  167.7934 C.2     1  UNL1        0.2493
      9 O         138.1232  138.9631  168.1130 O.2     1  UNL1       -0.2699
     10 N         140.1682  139.7004  166.5576 N.am    1  UNL1       -0.2657
     11 O         142.2792  142.2016  164.7746 O.2     1  UNL1       -0.2729
     12 C         142.3296  140.9734  165.6341 C.2     1  UNL1        0.2451
     13 N         143.4522  139.9913  165.4736 N.am    1  UNL1       -0.2988
     14 H         143.4853  139.1851  166.0377 H       1  UNL1        0.1498
     15 C         144.5242  140.2377  164.4537 C.3     1  UNL1        0.1164
     16 C         144.2802  139.9000  163.0128 C.ar    1  UNL1       -0.0024
     17 C         143.9074  138.5003  162.6231 C.ar    1  UNL1        0.0005
     18 C         143.6634  138.1626  161.1822 C.ar    1  UNL1        0.0369
     19 C         143.7922  139.2247  160.1307 C.ar    1  UNL1        0.1468
     20 C         144.1650  140.6244  160.5203 C.ar    1  UNL1        0.0369
     21 C         144.4090  140.9621  161.9614 C.ar    1  UNL1        0.0005
     22 O         143.5482  138.8870  158.6898 O.3     1  UNL1       -0.4045
     23 C         142.2319  138.3040  158.2685 C.3     1  UNL1        0.5753
     24 F         140.9157  137.7210  157.8472 F       1  UNL1       -0.1328
     25 F         142.9071  136.9996  157.9640 F       1  UNL1       -0.1328
     26 F         141.5568  139.6083  158.5729 F       1  UNL1       -0.1328
     27 C         139.9594  138.7400  165.4245 C.3     1  UNL1        0.1008
     28 C         138.6612  138.7373  164.6732 C.3     1  UNL1        0.0689
     29 C         138.6578  138.8908  163.1811 C.ar    1  UNL1        0.0798
     30 C         139.5728  138.0521  162.3387 C.ar    1  UNL1        0.1136
     31 N         139.5694  138.2056  160.8466 N.ar    1  UNL1       -0.2395
     32 C         138.6509  139.1978  160.1968 C.ar    1  UNL1        0.1195
     33 C         137.7360  140.0363  161.0391 C.ar    1  UNL1        0.1191
     34 N         137.7394  139.8828  162.5313 N.ar    1  UNL1       -0.2449
@<TRIPOS>BOND
     1    11    12    2
     2    12    13   am
     3    13    15    1
     4    15    16    1
     5    16    17   ar
     6    17    18   ar
     7    18    19   ar
     8    19    22    1
     9    22    23    1
    10    23    24    1
    11    23    25    1
    12    23    26    1
    13    19    20   ar
    14    20    21   ar
    15    12     1    1
    16     1     2    1
    17     2     3   ar
    18     3     4   ar
    19     4     5   ar
    20     5     6   ar
    21     6     7   ar
    22     7     8    1
    23     8     9    2
    24     8    10   am
    25    10    27    1
    26    27    28    1
    27    28    29    1
    28    29    30   ar
    29    30    31   ar
    30    31    32   ar
    31    32    33   ar
    32    33    34   ar
    33    21    16   ar
    34    10     1    1
    35    34    29   ar
    36     7     2   ar
    37    13    14    1
@<TRIPOS>MOLECULE
*****
 34 37 0 0 0
SMALL
GASTEIGER

@<TRIPOS>ATOM
      1 C         140.5709  138.6813  161.9487 C.3     1  UNL1        0.1751
      2 C         140.9968  138.4924  160.5228 C.ar    1  UNL1        0.0089
      3 C         142.3138  138.1189  159.9097 C.ar    1  UNL1       -0.0021
      4 C         142.4415  138.0032  158.4197 C.ar    1  UNL1       -0.0003
      5 C         141.2522  138.2610  157.5427 C.ar    1  UNL1        0.0001
      6 C         139.9351  138.6345  158.1558 C.ar    1  UNL1        0.0043
      7 C         139.8074  138.7502  159.6459 C.ar    1  UNL1        0.0516
      8 C         138.6466  139.0985  160.5297 C.2     1  UNL1        0.2493
      9 O         137.2577  139.4309  160.0709 O.2     1  UNL1       -0.2699
     10 N         139.1185  139.0559  161.9529 N.am    1  UNL1       -0.2657
     11 O         141.2938  137.3195  164.0398 O.2     1  UNL1       -0.2729
     12 C         141.4443  138.5234  163.1579 C.2     1  UNL1        0.2451
     13 N         142.4683  139.5696  163.4853 N.am    1  UNL1       -0.2988
     14 H         142.5672  140.3598  162.9065 H       1  UNL1        0.1498
     15 C         143.3417  139.4116  164.6945 C.3     1  UNL1        0.1164
     16 C         142.9236  140.0101  166.0049 C.ar    1  UNL1       -0.0024
     17 C         142.8436  139.1497  167.2309 C.ar    1  UNL1        0.0005
     18 C         142.4255  139.7482  168.5412 C.ar    1  UNL1        0.0369
     19 C         142.0874  141.2073  168.6255 C.ar    1  UNL1        0.1468
     20 C         142.1675  142.0677  167.3995 C.ar    1  UNL1        0.0369
     21 C         142.5856  141.4691  166.0891 C.ar    1  UNL1        0.0005
     22 O         141.6693  141.8057  169.9359 O.3     1  UNL1       -0.4045
     23 C         141.1746  143.2207  169.9903 C.3     1  UNL1        0.5753
     24 F         140.6799  144.6358  170.0448 F       1  UNL1       -0.1328
     25 F         142.5537  143.6891  170.3492 F       1  UNL1       -0.1328
     26 F         139.7956  142.7524  169.6315 F       1  UNL1       -0.1328
     27 C         138.2843  139.3383  163.1672 C.3     1  UNL1        0.1008
     28 C         138.3454  140.6864  163.8221 C.3     1  UNL1        0.0689
     29 C         138.9482  141.8490  163.0906 C.ar    1  UNL1        0.0798
     30 C         138.0821  142.7307  162.2405 C.ar    1  UNL1        0.1136
     31 N         138.6849  143.8933  161.5090 N.ar    1  UNL1       -0.2395
     32 C         140.1536  144.1742  161.6276 C.ar    1  UNL1        0.1195
     33 C         141.0195  143.2925  162.4777 C.ar    1  UNL1        0.1191
     34 N         140.4168  142.1299  163.2092 N.ar    1  UNL1       -0.2449
@<TRIPOS>BOND
     1    11    12    2
     2    12    13   am
     3    13    15    1
     4    15    16    1
     5    16    17   ar
     6    17    18   ar
     7    18    19   ar
     8    19    22    1
     9    22    23    1
    10    23    24    1
    11    23    25    1
    12    23    26    1
    13    19    20   ar
    14    20    21   ar
    15    12     1    1
    16     1     2    1
    17     2     3   ar
    18     3     4   ar
    19     4     5   ar
    20     5     6   ar
    21     6     7   ar
    22     7     8    1
    23     8     9    2
    24     8    10   am
    25    10    27    1
    26    27    28    1
    27    28    29    1
    28    29    30   ar
    29    30    31   ar
    30    31    32   ar
    31    32    33   ar
    32    33    34   ar
    33    21    16   ar
    34    10     1    1
    35    34    29   ar
    36     7     2   ar
    37    13    14    1
@<TRIPOS>MOLECULE
*****
 34 37 0 0 0
SMALL
GASTEIGER

@<TRIPOS>ATOM
      1 C         140.8082  141.4222  166.6154 C.3     1  UNL1        0.1751
      2 C         141.1737  141.8852  167.9945 C.ar    1  UNL1        0.0089
      3 C         140.7260  143.0620  168.8098 C.ar    1  UNL1       -0.0021
      4 C         141.2772  143.2722  170.1889 C.ar    1  UNL1       -0.0003
      5 C         142.2762  142.3057  170.7527 C.ar    1  UNL1        0.0001
      6 C         142.7239  141.1290  169.9374 C.ar    1  UNL1        0.0043
      7 C         142.1727  140.9187  168.5584 C.ar    1  UNL1        0.0516
      8 C         142.4246  139.8584  167.5277 C.2     1  UNL1        0.2493
      9 O         143.3563  138.6917  167.6724 O.2     1  UNL1       -0.2699
     10 N         141.5813  140.1696  166.3268 N.am    1  UNL1       -0.2657
     11 O         138.6369  141.3482  165.1907 O.2     1  UNL1       -0.2729
     12 C         139.8397  142.0939  165.6877 C.2     1  UNL1        0.2451
     13 N         140.0739  143.5116  165.2569 N.am    1  UNL1       -0.2988
     14 H         140.8634  144.0011  165.5831 H       1  UNL1        0.1498
     15 C         139.1054  144.1833  164.3292 C.3     1  UNL1        0.1164
     16 C         139.4175  144.2868  162.8657 C.ar    1  UNL1       -0.0024
     17 C         139.9704  145.5635  162.3051 C.ar    1  UNL1        0.0005
     18 C         140.2825  145.6669  160.8416 C.ar    1  UNL1        0.0369
     19 C         140.0418  144.4936  159.9386 C.ar    1  UNL1        0.1468
     20 C         139.4889  143.2168  160.4992 C.ar    1  UNL1        0.0369
     21 C         139.1767  143.1134  161.9628 C.ar    1  UNL1        0.0005
     22 O         140.3539  144.5970  158.4751 O.3     1  UNL1       -0.4045
     23 C         141.4559  145.4997  158.0052 C.3     1  UNL1        0.5753
     24 F         142.5578  146.4024  157.5353 F       1  UNL1       -0.1328
     25 F         142.4731  144.5028  158.4756 F       1  UNL1       -0.1328
     26 F         140.4386  146.4967  157.5348 F       1  UNL1       -0.1328
     27 C         141.5216  139.3687  165.0599 C.3     1  UNL1        0.1008
     28 C         142.6810  139.3827  164.1084 C.3     1  UNL1        0.0689
     29 C         143.2700  140.6884  163.6629 C.ar    1  UNL1        0.0798
     30 C         144.7578  140.8389  163.5456 C.ar    1  UNL1        0.1136
     31 N         145.3467  142.1446  163.1002 N.ar    1  UNL1       -0.2395
     32 C         144.4478  143.2997  162.7720 C.ar    1  UNL1        0.1195
     33 C         142.9600  143.1492  162.8894 C.ar    1  UNL1        0.1191
     34 N         142.3711  141.8435  163.3348 N.ar    1  UNL1       -0.2449
@<TRIPOS>BOND
     1    11    12    2
     2    12    13   am
     3    13    15    1
     4    15    16    1
     5    16    17   ar
     6    17    18   ar
     7    18    19   ar
     8    19    22    1
     9    22    23    1
    10    23    24    1
    11    23    25    1
    12    23    26    1
    13    19    20   ar
    14    20    21   ar
    15    12     1    1
    16     1     2    1
    17     2     3   ar
    18     3     4   ar
    19     4     5   ar
    20     5     6   ar
    21     6     7   ar
    22     7     8    1
    23     8     9    2
    24     8    10   am
    25    10    27    1
    26    27    28    1
    27    28    29    1
    28    29    30   ar
    29    30    31   ar
    30    31    32   ar
    31    32    33   ar
    32    33    34   ar
    33    21    16   ar
    34    10     1    1
    35    34    29   ar
    36     7     2   ar
    37    13    14    1
@<TRIPOS>MOLECULE
*****
 34 37 0 0 0
SMALL
GASTEIGER

@<TRIPOS>ATOM
      1 C         141.9990  137.7330  158.0057 C.3     1  UNL1        0.1751
      2 C         142.2859  136.8402  156.8349 C.ar    1  UNL1        0.0089
      3 C         143.5202  136.0969  156.4182 C.ar    1  UNL1       -0.0021
      4 C         143.5091  135.2645  155.1705 C.ar    1  UNL1       -0.0003
      5 C         142.2636  135.1755  154.3393 C.ar    1  UNL1        0.0001
      6 C         141.0292  135.9189  154.7560 C.ar    1  UNL1        0.0043
      7 C         141.0403  136.7513  156.0038 C.ar    1  UNL1        0.0516
      8 C         139.9838  137.5890  156.6609 C.2     1  UNL1        0.2493
      9 O         138.5810  137.7855  156.1674 O.2     1  UNL1       -0.2699
     10 N         140.5763  138.1958  157.8982 N.am    1  UNL1       -0.2657
     11 O         143.9719  139.1876  158.8670 O.2     1  UNL1       -0.2729
     12 C         142.9654  138.0987  159.0931 C.2     1  UNL1        0.2451
     13 N         142.9251  137.3756  160.4067 N.am    1  UNL1       -0.2988
     14 H         142.2645  136.6609  160.5552 H       1  UNL1        0.1498
     15 C         143.8915  137.7413  161.4941 C.3     1  UNL1        0.1164
     16 C         143.6409  138.9515  162.3442 C.ar    1  UNL1       -0.0024
     17 C         144.6244  139.3366  163.4093 C.ar    1  UNL1        0.0005
     18 C         144.3737  140.5468  164.2593 C.ar    1  UNL1        0.0369
     19 C         143.1397  141.3720  164.0442 C.ar    1  UNL1        0.1468
     20 C         142.1563  140.9869  162.9791 C.ar    1  UNL1        0.0369
     21 C         142.4069  139.7766  162.1290 C.ar    1  UNL1        0.0005
     22 O         142.8892  142.5822  164.8943 O.3     1  UNL1       -0.4045
     23 C         144.0445  143.3539  165.4597 C.3     1  UNL1        0.5753
     24 F         145.1998  144.1256  166.0251 F       1  UNL1       -0.1328
     25 F         143.7868  142.7511  166.8089 F       1  UNL1       -0.1328
     26 F         144.3022  143.9567  164.1105 F       1  UNL1       -0.1328
     27 C         139.8700  139.1056  158.8592 C.3     1  UNL1        0.1008
     28 C         139.3754  138.5724  160.1710 C.3     1  UNL1        0.0689
     29 C         138.7668  139.5034  161.1775 C.ar    1  UNL1        0.0798
     30 C         138.1965  140.8181  160.7343 C.ar    1  UNL1        0.1136
     31 N         137.5879  141.7491  161.7408 N.ar    1  UNL1       -0.2395
     32 C         137.5498  141.3654  163.1904 C.ar    1  UNL1        0.1195
     33 C         138.1201  140.0507  163.6335 C.ar    1  UNL1        0.1191
     34 N         138.7287  139.1197  162.6271 N.ar    1  UNL1       -0.2449
@<TRIPOS>BOND
     1    11    12    2
     2    12    13   am
     3    13    15    1
     4    15    16    1
     5    16    17   ar
     6    17    18   ar
     7    18    19   ar
     8    19    22    1
     9    22    23    1
    10    23    24    1
    11    23    25    1
    12    23    26    1
    13    19    20   ar
    14    20    21   ar
    15    12     1    1
    16     1     2    1
    17     2     3   ar
    18     3     4   ar
    19     4     5   ar
    20     5     6   ar
    21     6     7   ar
    22     7     8    1
    23     8     9    2
    24     8    10   am
    25    10    27    1
    26    27    28    1
    27    28    29    1
    28    29    30   ar
    29    30    31   ar
    30    31    32   ar
    31    32    33   ar
    32    33    34   ar
    33    21    16   ar
    34    10     1    1
    35    34    29   ar
    36     7     2   ar
    37    13    14    1
@<TRIPOS>MOLECULE
*****
 34 37 0 0 0
SMALL
GASTEIGER

@<TRIPOS>ATOM
      1 C         141.4678  144.3427  158.9215 C.3     1  UNL1        0.1751
      2 C         141.2753  145.0011  157.5875 C.ar    1  UNL1        0.0089
      3 C         140.3069  146.0439  157.1133 C.ar    1  UNL1       -0.0021
      4 C         140.3535  146.5193  155.6915 C.ar    1  UNL1       -0.0003
      5 C         141.3684  145.9520  154.7438 C.ar    1  UNL1        0.0001
      6 C         142.3368  144.9092  155.2180 C.ar    1  UNL1        0.0043
      7 C         142.2902  144.4338  156.6398 C.ar    1  UNL1        0.0516
      8 C         143.1100  143.4248  157.3881 C.2     1  UNL1        0.2493
      9 O         144.2397  142.6144  156.8251 O.2     1  UNL1       -0.2699
     10 N         142.6017  143.3685  158.7983 N.am    1  UNL1       -0.2657
     11 O         139.2344  144.1738  160.2380 O.2     1  UNL1       -0.2729
     12 C         140.6670  144.6114  160.1610 C.2     1  UNL1        0.2451
     13 N         141.2990  145.3177  161.3238 N.am    1  UNL1       -0.2988
     14 H         142.2393  145.6049  161.2733 H       1  UNL1        0.1498
     15 C         140.4982  145.5864  162.5634 C.3     1  UNL1        0.1164
     16 C         140.2520  144.4843  163.5507 C.ar    1  UNL1       -0.0024
     17 C         139.3540  144.7196  164.7289 C.ar    1  UNL1        0.0005
     18 C         139.1078  143.6175  165.7161 C.ar    1  UNL1        0.0369
     19 C         139.7597  142.2800  165.5252 C.ar    1  UNL1        0.1468
     20 C         140.6576  142.0447  164.3470 C.ar    1  UNL1        0.0369
     21 C         140.9038  143.1469  163.3597 C.ar    1  UNL1        0.0005
     22 O         139.5135  141.1779  166.5125 O.3     1  UNL1       -0.4045
     23 C         139.2821  139.7766  166.0301 C.3     1  UNL1        0.5753
     24 F         139.0508  138.3753  165.5477 F       1  UNL1       -0.1328
     25 F         140.6579  139.3920  166.4876 F       1  UNL1       -0.1328
     26 F         137.9064  140.1612  165.5726 F       1  UNL1       -0.1328
     27 C         143.1339  142.4919  159.8930 C.3     1  UNL1        0.1008
     28 C         144.3944  142.8717  160.6119 C.3     1  UNL1        0.0689
     29 C         144.3515  143.2121  162.0721 C.ar    1  UNL1        0.0798
     30 C         144.6412  142.1560  163.0973 C.ar    1  UNL1        0.1136
     31 N         144.5983  142.4964  164.5575 N.ar    1  UNL1       -0.2395
     32 C         144.2657  143.8929  164.9926 C.ar    1  UNL1        0.1195
     33 C         143.9761  144.9489  163.9675 C.ar    1  UNL1        0.1191
     34 N         144.0190  144.6085  162.5073 N.ar    1  UNL1       -0.2449
@<TRIPOS>BOND
     1    11    12    2
     2    12    13   am
     3    13    15    1
     4    15    16    1
     5    16    17   ar
     6    17    18   ar
     7    18    19   ar
     8    19    22    1
     9    22    23    1
    10    23    24    1
    11    23    25    1
    12    23    26    1
    13    19    20   ar
    14    20    21   ar
    15    12     1    1
    16     1     2    1
    17     2     3   ar
    18     3     4   ar
    19     4     5   ar
    20     5     6   ar
    21     6     7   ar
    22     7     8    1
    23     8     9    2
    24     8    10   am
    25    10    27    1
    26    27    28    1
    27    28    29    1
    28    29    30   ar
    29    30    31   ar
    30    31    32   ar
    31    32    33   ar
    32    33    34   ar
    33    21    16   ar
    34    10     1    1
    35    34    29   ar
    36     7     2   ar
    37    13    14    1
@<TRIPOS>MOLECULE
*****
 34 37 0 0 0
SMALL
GASTEIGER

@<TRIPOS>ATOM
      1 C         139.0616  142.3107  162.3846 C.3     1  UNL1        0.1751
      2 C         138.7525  141.8287  160.9982 C.ar    1  UNL1        0.0089
      3 C         138.2445  140.5150  160.4824 C.ar    1  UNL1       -0.0021
      4 C         138.0264  140.3208  159.0111 C.ar    1  UNL1       -0.0003
      5 C         138.3162  141.4402  158.0557 C.ar    1  UNL1        0.0001
      6 C         138.8241  142.7539  158.5716 C.ar    1  UNL1        0.0043
      7 C         139.0422  142.9481  160.0428 C.ar    1  UNL1        0.0516
      8 C         139.5305  144.1221  160.8388 C.2     1  UNL1        0.2493
      9 O         139.9356  145.4558  160.2847 O.2     1  UNL1       -0.2699
     10 N         139.5425  143.7282  162.2861 N.am    1  UNL1       -0.2657
     11 O         137.9788  141.9800  164.7230 O.2     1  UNL1       -0.2729
     12 C         138.9155  141.5151  163.6478 C.2     1  UNL1        0.2451
     13 N         139.7063  140.2543  163.8357 N.am    1  UNL1       -0.2988
     14 H         140.3212  139.9490  163.1300 H       1  UNL1        0.1498
     15 C         139.5603  139.4586  165.0988 C.3     1  UNL1        0.1164
     16 C         140.3975  139.7938  166.2973 C.ar    1  UNL1       -0.0024
     17 C         141.8937  139.7362  166.2070 C.ar    1  UNL1        0.0005
     18 C         142.7309  140.0714  167.4056 C.ar    1  UNL1        0.0369
     19 C         142.0720  140.4644  168.6946 C.ar    1  UNL1        0.1468
     20 C         140.5759  140.5221  168.7850 C.ar    1  UNL1        0.0369
     21 C         139.7386  140.1868  167.5863 C.ar    1  UNL1        0.0005
     22 O         142.9093  140.7996  169.8931 O.3     1  UNL1       -0.4045
     23 C         143.0374  142.2246  170.3438 C.3     1  UNL1        0.5753
     24 F         143.1654  143.6495  170.7944 F       1  UNL1       -0.1328
     25 F         142.0039  141.9823  171.4036 F       1  UNL1       -0.1328
     26 F         144.0709  142.4669  169.2840 F       1  UNL1       -0.1328
     27 C         139.9617  144.5988  163.4334 C.3     1  UNL1        0.1008
     28 C         141.3809  145.0734  163.5352 C.3     1  UNL1        0.0689
     29 C         142.5109  144.1149  163.3019 C.ar    1  UNL1        0.0798
     30 C         142.7091  142.9500  164.2259 C.ar    1  UNL1        0.1136
     31 N         143.8391  141.9916  163.9927 N.ar    1  UNL1       -0.2395
     32 C         144.7709  142.1980  162.8353 C.ar    1  UNL1        0.1195
     33 C         144.5726  143.3628  161.9114 C.ar    1  UNL1        0.1191
     34 N         143.4426  144.3213  162.1446 N.ar    1  UNL1       -0.2449
@<TRIPOS>BOND
     1    11    12    2
     2    12    13   am
     3    13    15    1
     4    15    16    1
     5    16    17   ar
     6    17    18   ar
     7    18    19   ar
     8    19    22    1
     9    22    23    1
    10    23    24    1
    11    23    25    1
    12    23    26    1
    13    19    20   ar
    14    20    21   ar
    15    12     1    1
    16     1     2    1
    17     2     3   ar
    18     3     4   ar
    19     4     5   ar
    20     5     6   ar
    21     6     7   ar
    22     7     8    1
    23     8     9    2
    24     8    10   am
    25    10    27    1
    26    27    28    1
    27    28    29    1
    28    29    30   ar
    29    30    31   ar
    30    31    32   ar
    31    32    33   ar
    32    33    34   ar
    33    21    16   ar
    34    10     1    1
    35    34    29   ar
    36     7     2   ar
    37    13    14    1
@<TRIPOS>MOLECULE
*****
 34 37 0 0 0
SMALL
GASTEIGER

@<TRIPOS>ATOM
      1 C         143.0089  143.0358  161.0672 C.3     1  UNL1        0.1751
      2 C         141.9167  144.0428  161.2743 C.ar    1  UNL1        0.0089
      3 C         141.2202  144.5282  162.5109 C.ar    1  UNL1       -0.0021
      4 C         140.1422  145.5659  162.4061 C.ar    1  UNL1       -0.0003
      5 C         139.7607  146.1182  161.0647 C.ar    1  UNL1        0.0001
      6 C         140.4571  145.6328  159.8281 C.ar    1  UNL1        0.0043
      7 C         141.5351  144.5951  159.9329 C.ar    1  UNL1        0.0516
      8 C         142.3915  143.9294  158.8968 C.2     1  UNL1        0.2493
      9 O         142.3452  144.1830  157.4191 O.2     1  UNL1       -0.2699
     10 N         143.3024  142.9657  159.5979 N.am    1  UNL1       -0.2657
     11 O         145.0820  142.5917  162.5689 O.2     1  UNL1       -0.2729
     12 C         143.6884  142.2388  162.1410 C.2     1  UNL1        0.2451
     13 N         142.9741  141.0886  162.7870 N.am    1  UNL1       -0.2988
     14 H         142.0594  140.8569  162.5062 H       1  UNL1        0.1498
     15 C         143.6536  140.2916  163.8609 C.3     1  UNL1        0.1164
     16 C         143.3380  140.5548  165.3034 C.ar    1  UNL1       -0.0024
     17 C         143.2978  141.9634  165.8176 C.ar    1  UNL1        0.0005
     18 C         142.9822  142.2265  167.2602 C.ar    1  UNL1        0.0369
     19 C         142.7068  141.0811  168.1888 C.ar    1  UNL1        0.1468
     20 C         142.7470  139.6725  167.6746 C.ar    1  UNL1        0.0369
     21 C         143.0626  139.4094  166.2319 C.ar    1  UNL1        0.0005
     22 O         142.3912  141.3443  169.6313 O.3     1  UNL1       -0.4045
     23 C         142.8921  142.5939  170.2928 C.3     1  UNL1        0.5753
     24 F         143.3931  143.8434  170.9543 F       1  UNL1       -0.1328
     25 F         141.4813  143.0819  170.4393 F       1  UNL1       -0.1328
     26 F         144.3029  142.1058  170.1463 F       1  UNL1       -0.1328
     27 C         144.3269  142.0863  158.9444 C.3     1  UNL1        0.1008
     28 C         143.9446  140.7170  158.4661 C.3     1  UNL1        0.0689
     29 C         143.3172  139.7392  159.4149 C.ar    1  UNL1        0.0798
     30 C         141.8239  139.6158  159.4860 C.ar    1  UNL1        0.1136
     31 N         141.1965  138.6380  160.4349 N.ar    1  UNL1       -0.2395
     32 C         142.0624  137.7836  161.3126 C.ar    1  UNL1        0.1195
     33 C         143.5555  137.9070  161.2415 C.ar    1  UNL1        0.1191
     34 N         144.1829  138.8848  160.2926 N.ar    1  UNL1       -0.2449
@<TRIPOS>BOND
     1    11    12    2
     2    12    13   am
     3    13    15    1
     4    15    16    1
     5    16    17   ar
     6    17    18   ar
     7    18    19   ar
     8    19    22    1
     9    22    23    1
    10    23    24    1
    11    23    25    1
    12    23    26    1
    13    19    20   ar
    14    20    21   ar
    15    12     1    1
    16     1     2    1
    17     2     3   ar
    18     3     4   ar
    19     4     5   ar
    20     5     6   ar
    21     6     7   ar
    22     7     8    1
    23     8     9    2
    24     8    10   am
    25    10    27    1
    26    27    28    1
    27    28    29    1
    28    29    30   ar
    29    30    31   ar
    30    31    32   ar
    31    32    33   ar
    32    33    34   ar
    33    21    16   ar
    34    10     1    1
    35    34    29   ar
    36     7     2   ar
    37    13    14    1
