@<TRIPOS>MOLECULE
*****
 39 42 0 0 0
SMALL
GASTEIGER

@<TRIPOS>ATOM
      1 N         139.3462  140.0044  160.8216 N.3     1  UNL1       -0.2711
      2 C         139.6301  139.9431  159.3500 C.3     1  UNL1        0.0933
      3 C         138.1834  140.2132  159.0597 C.3     1  UNL1        0.1035
      4 C         137.8996  140.2745  160.5313 C.3     1  UNL1        0.0933
      5 C         141.8132  139.5611  164.5589 C.3     1  UNL1        0.1231
      6 O         142.6398  138.5346  165.2750 O.3     1  UNL1       -0.3812
      7 C         141.1370  140.8656  164.2569 C.3     1  UNL1        0.0341
      8 C         140.3146  141.0133  163.0111 C.3     1  UNL1        0.0188
      9 C         140.1685  139.8567  162.0673 C.3     1  UNL1        0.0578
     10 C         140.8447  138.5523  162.3693 C.3     1  UNL1        0.0188
     11 C         141.6671  138.4045  163.6151 C.3     1  UNL1        0.0341
     12 H         142.9973  138.9191  166.0907 H       1  UNL1        0.2107
     13 C         143.1128  141.9616  168.1364 C.ar    1  UNL1        0.1578
     14 C         143.3684  142.4800  166.7523 C.ar    1  UNL1        0.0398
     15 C         142.9352  141.6799  165.5598 C.ar    1  UNL1        0.0202
     16 C         142.2464  140.3613  165.7514 C.ar    1  UNL1        0.0832
     17 N         141.9907  139.8428  167.1355 N.ar    1  UNL1       -0.2427
     18 C         142.4239  140.6430  168.3280 C.ar    1  UNL1        0.1353
     19 C         142.6065  142.9585  170.4816 C.3     1  UNL1        0.2525
     20 O         143.5460  142.7617  169.3290 O.3     1  UNL1       -0.4699
     21 N         137.3612  140.3609  157.8138 N.am    1  UNL1       -0.3018
     22 C         137.3971  141.6450  157.0393 C.2     1  UNL1        0.2426
     23 O         138.2552  142.7814  157.5107 O.2     1  UNL1       -0.2733
     24 H         136.7980  139.6151  157.5044 H       1  UNL1        0.1495
     25 C         136.5748  141.7927  155.7935 C.3     1  UNL1        0.1759
     26 N         135.0772  141.7816  155.8776 N.am    1  UNL1       -0.2931
     27 C         134.3360  140.4775  155.8817 C.2     1  UNL1        0.2462
     28 O         135.0923  139.1847  155.8017 O.2     1  UNL1       -0.2701
     29 H         134.5809  142.6302  155.9301 H       1  UNL1        0.1502
     30 C         132.8384  140.4664  155.9658 C.ar    1  UNL1        0.0533
     31 C         132.0419  141.5514  155.3038 C.ar    1  UNL1        0.0045
     32 C         130.5444  141.5403  155.3879 C.ar    1  UNL1        0.0001
     33 C         129.8432  140.4441  156.1341 C.ar    1  UNL1        0.0039
     34 C         130.6396  139.3591  156.7962 C.ar    1  UNL1        0.0716
     35 C         132.1372  139.3702  156.7121 C.ar    1  UNL1        0.0084
     36 C         129.9385  138.2629  157.5424 C.3     1  UNL1        0.4186
     37 F         129.2374  137.1668  158.2885 F       1  UNL1       -0.1659
     38 F         130.1080  137.3517  156.3630 F       1  UNL1       -0.1659
     39 F         129.7690  139.1742  158.7218 F       1  UNL1       -0.1659
@<TRIPOS>BOND
     1    19    20    1
     2    20    13    1
     3    13    14   ar
     4    14    15   ar
     5    15    16   ar
     6    16     5    1
     7     5     6    1
     8     5     7    1
     9     7     8    1
    10     8     9    1
    11     9     1    1
    12     1     2    1
    13     2     3    1
    14     3    21    1
    15    21    22   am
    16    22    23    2
    17    22    25    1
    18    25    26    1
    19    26    27   am
    20    27    28    2
    21    27    30    1
    22    30    31   ar
    23    31    32   ar
    24    32    33   ar
    25    33    34   ar
    26    34    36    1
    27    36    37    1
    28    36    38    1
    29    36    39    1
    30    34    35   ar
    31     3     4    1
    32     9    10    1
    33    10    11    1
    34    16    17   ar
    35    17    18   ar
    36    18    13   ar
    37    11     5    1
    38     4     1    1
    39    35    30   ar
    40     6    12    1
    41    21    24    1
    42    26    29    1
@<TRIPOS>MOLECULE
*****
 39 42 0 0 0
SMALL
GASTEIGER

@<TRIPOS>ATOM
      1 N         144.4381  142.6361  158.8126 N.3     1  UNL1       -0.2711
      2 C         144.5508  142.3066  160.2717 C.3     1  UNL1        0.0933
      3 C         143.2544  143.0149  160.5317 C.3     1  UNL1        0.1035
      4 C         143.1418  143.3445  159.0727 C.3     1  UNL1        0.0933
      5 C         146.9493  141.8321  155.1661 C.3     1  UNL1        0.1231
      6 O         146.8550  141.1496  153.8336 O.3     1  UNL1       -0.3812
      7 C         147.5217  142.6090  156.3144 C.3     1  UNL1        0.0341
      8 C         146.6846  142.8770  157.5300 C.3     1  UNL1        0.0188
      9 C         145.2752  142.3681  157.5972 C.3     1  UNL1        0.0578
     10 C         144.7028  141.5912  156.4488 C.3     1  UNL1        0.0188
     11 C         145.5399  141.3232  155.2332 C.3     1  UNL1        0.0341
     12 H         147.6971  141.2442  153.3616 H       1  UNL1        0.2107
     13 C         151.0794  142.6476  153.5764 C.ar    1  UNL1        0.1578
     14 C         149.8832  143.2494  152.9004 C.ar    1  UNL1        0.0398
     15 C         148.5065  142.9776  153.4303 C.ar    1  UNL1        0.0202
     16 C         148.3260  142.1039  154.6362 C.ar    1  UNL1        0.0832
     17 N         149.5221  141.5021  155.3121 N.ar    1  UNL1       -0.2427
     18 C         150.8988  141.7740  154.7822 C.ar    1  UNL1        0.1353
     19 C         153.6561  142.6595  153.9079 C.3     1  UNL1        0.2525
     20 O         152.4561  142.9195  153.0465 O.3     1  UNL1       -0.4699
     21 N         142.4173  143.2829  161.7473 N.am    1  UNL1       -0.3018
     22 C         142.8711  144.2885  162.7636 C.2     1  UNL1        0.2426
     23 O         144.1618  145.0262  162.5643 O.2     1  UNL1       -0.2733
     24 H         141.5702  142.7987  161.8781 H       1  UNL1        0.1495
     25 C         142.0340  144.5565  163.9791 C.3     1  UNL1        0.1759
     26 N         141.7511  143.4515  164.9533 N.am    1  UNL1       -0.2931
     27 C         140.3835  143.3130  165.5538 C.2     1  UNL1        0.2462
     28 O         139.2989  144.2795  165.1801 O.2     1  UNL1       -0.2701
     29 H         142.4629  142.8172  165.1986 H       1  UNL1        0.1502
     30 C         140.1006  142.2081  166.5280 C.ar    1  UNL1        0.0533
     31 C         140.4735  142.3676  167.9721 C.ar    1  UNL1        0.0045
     32 C         140.1906  141.2627  168.9463 C.ar    1  UNL1        0.0001
     33 C         139.5347  139.9982  168.4763 C.ar    1  UNL1        0.0039
     34 C         139.1617  139.8386  167.0323 C.ar    1  UNL1        0.0716
     35 C         139.4446  140.9436  166.0581 C.ar    1  UNL1        0.0084
     36 C         138.5058  138.5741  166.5623 C.3     1  UNL1        0.4186
     37 F         137.8499  137.3097  166.0924 F       1  UNL1       -0.1659
     38 F         139.5866  138.3942  165.5380 F       1  UNL1       -0.1659
     39 F         137.4249  138.7541  167.5867 F       1  UNL1       -0.1659
@<TRIPOS>BOND
     1    19    20    1
     2    20    13    1
     3    13    14   ar
     4    14    15   ar
     5    15    16   ar
     6    16     5    1
     7     5     6    1
     8     5     7    1
     9     7     8    1
    10     8     9    1
    11     9     1    1
    12     1     2    1
    13     2     3    1
    14     3    21    1
    15    21    22   am
    16    22    23    2
    17    22    25    1
    18    25    26    1
    19    26    27   am
    20    27    28    2
    21    27    30    1
    22    30    31   ar
    23    31    32   ar
    24    32    33   ar
    25    33    34   ar
    26    34    36    1
    27    36    37    1
    28    36    38    1
    29    36    39    1
    30    34    35   ar
    31     3     4    1
    32     9    10    1
    33    10    11    1
    34    16    17   ar
    35    17    18   ar
    36    18    13   ar
    37    11     5    1
    38     4     1    1
    39    35    30   ar
    40     6    12    1
    41    21    24    1
    42    26    29    1
@<TRIPOS>MOLECULE
*****
 39 42 0 0 0
SMALL
GASTEIGER

@<TRIPOS>ATOM
      1 N         144.2894  142.6626  158.8804 N.3     1  UNL1       -0.2711
      2 C         143.0359  143.4445  159.1404 C.3     1  UNL1        0.0933
      3 C         143.0886  143.0482  160.5862 C.3     1  UNL1        0.1035
      4 C         144.3421  142.2663  160.3262 C.3     1  UNL1        0.0933
      5 C         146.8362  141.8448  155.2617 C.3     1  UNL1        0.1231
      6 O         146.7529  141.1627  153.9284 O.3     1  UNL1       -0.3812
      7 C         147.4000  142.6188  156.4163 C.3     1  UNL1        0.0341
      8 C         146.5511  142.8914  157.6225 C.3     1  UNL1        0.0188
      9 C         145.1384  142.3901  157.6742 C.3     1  UNL1        0.0578
     10 C         144.5745  141.6161  156.5197 C.3     1  UNL1        0.0188
     11 C         145.4234  141.3435  155.3134 C.3     1  UNL1        0.0341
     12 H         147.6007  141.2528  153.4657 H       1  UNL1        0.2107
     13 C         150.9878  142.6383  153.7175 C.ar    1  UNL1        0.1578
     14 C         149.8050  143.2757  153.0507 C.ar    1  UNL1        0.0398
     15 C         148.4211  143.0112  153.5654 C.ar    1  UNL1        0.0202
     16 C         148.2200  142.1093  154.7470 C.ar    1  UNL1        0.0832
     17 N         149.4028  141.4719  155.4138 N.ar    1  UNL1       -0.2427
     18 C         150.7867  141.7364  154.8990 C.ar    1  UNL1        0.1353
     19 C         153.5102  142.0227  153.6260 C.3     1  UNL1        0.2525
     20 O         152.3716  142.9028  153.2027 O.3     1  UNL1       -0.4699
     21 N         142.2396  143.3208  161.7924 N.am    1  UNL1       -0.3018
     22 C         142.7174  144.2761  162.8455 C.2     1  UNL1        0.2426
     23 O         144.0442  144.9589  162.6924 O.2     1  UNL1       -0.2733
     24 H         141.3688  142.8727  161.8928 H       1  UNL1        0.1495
     25 C         141.8684  144.5487  164.0517 C.3     1  UNL1        0.1759
     26 N         141.3750  143.4101  164.8943 N.am    1  UNL1       -0.2931
     27 C         140.1202  142.6827  164.5117 C.2     1  UNL1        0.2462
     28 O         139.3589  143.0939  163.2864 O.2     1  UNL1       -0.2701
     29 H         141.8747  143.1403  165.6985 H       1  UNL1        0.1502
     30 C         139.6268  141.5441  165.3544 C.ar    1  UNL1        0.0533
     31 C         138.6125  140.5869  164.8022 C.ar    1  UNL1        0.0045
     32 C         138.1191  139.4483  165.6449 C.ar    1  UNL1        0.0001
     33 C         138.6400  139.2669  167.0398 C.ar    1  UNL1        0.0039
     34 C         139.6544  140.2241  167.5920 C.ar    1  UNL1        0.0716
     35 C         140.1478  141.3627  166.7493 C.ar    1  UNL1        0.0084
     36 C         140.1753  140.0426  168.9869 C.3     1  UNL1        0.4186
     37 F         140.6963  139.8613  170.3817 F       1  UNL1       -0.1659
     38 F         141.5145  139.6516  168.4358 F       1  UNL1       -0.1659
     39 F         138.8361  140.4337  169.5379 F       1  UNL1       -0.1659
@<TRIPOS>BOND
     1    19    20    1
     2    20    13    1
     3    13    14   ar
     4    14    15   ar
     5    15    16   ar
     6    16     5    1
     7     5     6    1
     8     5     7    1
     9     7     8    1
    10     8     9    1
    11     9     1    1
    12     1     2    1
    13     2     3    1
    14     3    21    1
    15    21    22   am
    16    22    23    2
    17    22    25    1
    18    25    26    1
    19    26    27   am
    20    27    28    2
    21    27    30    1
    22    30    31   ar
    23    31    32   ar
    24    32    33   ar
    25    33    34   ar
    26    34    36    1
    27    36    37    1
    28    36    38    1
    29    36    39    1
    30    34    35   ar
    31     3     4    1
    32     9    10    1
    33    10    11    1
    34    16    17   ar
    35    17    18   ar
    36    18    13   ar
    37    11     5    1
    38     4     1    1
    39    35    30   ar
    40     6    12    1
    41    21    24    1
    42    26    29    1
@<TRIPOS>MOLECULE
*****
 39 42 0 0 0
SMALL
GASTEIGER

@<TRIPOS>ATOM
      1 N         139.5091  138.7475  162.6997 N.3     1  UNL1       -0.2711
      2 C         140.6382  138.4408  161.7610 C.3     1  UNL1        0.0933
      3 C         139.6654  138.3410  160.6235 C.3     1  UNL1        0.1035
      4 C         138.5363  138.6477  161.5623 C.3     1  UNL1        0.0933
      5 C         139.1778  139.6096  167.1038 C.3     1  UNL1        0.1231
      6 O         138.2984  139.2860  168.2751 O.3     1  UNL1       -0.3812
      7 C         140.3039  140.1986  166.3070 C.3     1  UNL1        0.0341
      8 C         140.4144  139.9112  164.8389 C.3     1  UNL1        0.0188
      9 C         139.3987  139.0349  164.1677 C.3     1  UNL1        0.0578
     10 C         138.2726  138.4460  164.9646 C.3     1  UNL1        0.0188
     11 C         138.1622  138.7334  166.4327 C.3     1  UNL1        0.0341
     12 H         138.6431  139.7240  169.0690 H       1  UNL1        0.2107
     13 C         141.3085  141.9014  170.3377 C.ar    1  UNL1        0.1578
     14 C         141.3232  142.4075  168.9258 C.ar    1  UNL1        0.0398
     15 C         140.6129  141.6435  167.8478 C.ar    1  UNL1        0.0202
     16 C         139.8880  140.3736  168.1818 C.ar    1  UNL1        0.0832
     17 N         139.8734  139.8675  169.5937 N.ar    1  UNL1       -0.2427
     18 C         140.5836  140.6314  170.6717 C.ar    1  UNL1        0.1353
     19 C         143.0761  143.6657  171.0537 C.3     1  UNL1        0.2525
     20 O         142.0188  142.6653  171.4157 O.3     1  UNL1       -0.4699
     21 N         139.7758  138.0536  159.1554 N.am    1  UNL1       -0.3018
     22 C         140.2374  139.1262  158.2139 C.2     1  UNL1        0.2426
     23 O         140.5884  140.4861  158.7404 O.2     1  UNL1       -0.2733
     24 H         139.5454  137.1610  158.8099 H       1  UNL1        0.1495
     25 C         140.3478  138.8387  156.7458 C.3     1  UNL1        0.1759
     26 N         140.7297  137.4660  156.2770 N.am    1  UNL1       -0.2931
     27 C         142.1252  136.9605  156.4941 C.2     1  UNL1        0.2462
     28 O         143.1387  137.8278  157.1800 O.2     1  UNL1       -0.2701
     29 H         140.0644  136.8968  155.8268 H       1  UNL1        0.1502
     30 C         142.5070  135.5877  156.0254 C.ar    1  UNL1        0.0533
     31 C         141.9325  135.0436  154.7511 C.ar    1  UNL1        0.0045
     32 C         142.3144  133.6709  154.2823 C.ar    1  UNL1        0.0001
     33 C         143.2708  132.8423  155.0879 C.ar    1  UNL1        0.0039
     34 C         143.8452  133.3864  156.3621 C.ar    1  UNL1        0.0716
     35 C         143.4634  134.7592  156.8309 C.ar    1  UNL1        0.0084
     36 C         144.8016  132.5578  157.1677 C.3     1  UNL1        0.4186
     37 F         145.7579  131.7293  157.9731 F       1  UNL1       -0.1659
     38 F         144.5195  133.4045  158.3733 F       1  UNL1       -0.1659
     39 F         145.0837  131.7112  155.9620 F       1  UNL1       -0.1659
@<TRIPOS>BOND
     1    19    20    1
     2    20    13    1
     3    13    14   ar
     4    14    15   ar
     5    15    16   ar
     6    16     5    1
     7     5     6    1
     8     5     7    1
     9     7     8    1
    10     8     9    1
    11     9     1    1
    12     1     2    1
    13     2     3    1
    14     3    21    1
    15    21    22   am
    16    22    23    2
    17    22    25    1
    18    25    26    1
    19    26    27   am
    20    27    28    2
    21    27    30    1
    22    30    31   ar
    23    31    32   ar
    24    32    33   ar
    25    33    34   ar
    26    34    36    1
    27    36    37    1
    28    36    38    1
    29    36    39    1
    30    34    35   ar
    31     3     4    1
    32     9    10    1
    33    10    11    1
    34    16    17   ar
    35    17    18   ar
    36    18    13   ar
    37    11     5    1
    38     4     1    1
    39    35    30   ar
    40     6    12    1
    41    21    24    1
    42    26    29    1
@<TRIPOS>MOLECULE
*****
 39 42 0 0 0
SMALL
GASTEIGER

@<TRIPOS>ATOM
      1 N         140.8038  139.7437  160.9599 N.3     1  UNL1       -0.2711
      2 C         141.7025  139.9923  159.7850 C.3     1  UNL1        0.0933
      3 C         141.2419  138.7083  159.1610 C.3     1  UNL1        0.1035
      4 C         140.3432  138.4597  160.3359 C.3     1  UNL1        0.0933
      5 C         139.8745  141.9404  164.7758 C.3     1  UNL1        0.1231
      6 O         139.3356  143.2613  165.2392 O.3     1  UNL1       -0.3812
      7 C         140.4356  140.5503  164.8282 C.3     1  UNL1        0.0341
      8 C         140.7454  139.8180  163.5563 C.3     1  UNL1        0.0188
      9 C         140.4940  140.4758  162.2319 C.3     1  UNL1        0.0578
     10 C         139.9329  141.8659  162.1794 C.3     1  UNL1        0.0188
     11 C         139.6231  142.5982  163.4514 C.3     1  UNL1        0.0341
     12 H         139.3172  143.2808  166.2088 H       1  UNL1        0.2107
     13 C         140.0671  141.3431  169.2318 C.ar    1  UNL1        0.1578
     14 C         140.5035  142.6460  168.6302 C.ar    1  UNL1        0.0398
     15 C         140.4392  142.8451  167.1448 C.ar    1  UNL1        0.0202
     16 C         139.9387  141.7413  166.2611 C.ar    1  UNL1        0.0832
     17 N         139.5024  140.4383  166.8627 N.ar    1  UNL1       -0.2427
     18 C         139.5666  140.2393  168.3481 C.ar    1  UNL1        0.1353
     19 C         141.4095  140.6913  171.3586 C.3     1  UNL1        0.2525
     20 O         140.1314  141.1440  170.7171 O.3     1  UNL1       -0.4699
     21 N         141.5517  137.9762  157.8889 N.am    1  UNL1       -0.3018
     22 C         140.4806  137.7781  156.8577 C.2     1  UNL1        0.2426
     23 O         139.0998  138.3121  157.0985 O.2     1  UNL1       -0.2733
     24 H         142.4581  137.6257  157.7309 H       1  UNL1        0.1495
     25 C         140.7904  137.0460  155.5857 C.3     1  UNL1        0.1759
     26 N         140.9104  135.5508  155.5910 N.am    1  UNL1       -0.2931
     27 C         142.1774  134.9018  156.0639 C.2     1  UNL1        0.2462
     28 O         143.3243  135.7480  156.5313 O.2     1  UNL1       -0.2701
     29 H         140.1576  134.9955  155.2843 H       1  UNL1        0.1502
     30 C         142.2974  133.4066  156.0693 C.ar    1  UNL1        0.0533
     31 C         141.4165  132.5803  155.1798 C.ar    1  UNL1        0.0045
     32 C         141.5365  131.0851  155.1852 C.ar    1  UNL1        0.0001
     33 C         142.5374  130.4163  156.0801 C.ar    1  UNL1        0.0039
     34 C         143.4182  131.2425  156.9696 C.ar    1  UNL1        0.0716
     35 C         143.2982  132.7377  156.9643 C.ar    1  UNL1        0.0084
     36 C         144.4191  130.5737  157.8646 C.3     1  UNL1        0.4186
     37 F         145.4198  129.9049  158.7595 F       1  UNL1       -0.1659
     38 F         145.4481  131.5933  157.4758 F       1  UNL1       -0.1659
     39 F         143.3899  129.5540  158.2535 F       1  UNL1       -0.1659
@<TRIPOS>BOND
     1    19    20    1
     2    20    13    1
     3    13    14   ar
     4    14    15   ar
     5    15    16   ar
     6    16     5    1
     7     5     6    1
     8     5     7    1
     9     7     8    1
    10     8     9    1
    11     9     1    1
    12     1     2    1
    13     2     3    1
    14     3    21    1
    15    21    22   am
    16    22    23    2
    17    22    25    1
    18    25    26    1
    19    26    27   am
    20    27    28    2
    21    27    30    1
    22    30    31   ar
    23    31    32   ar
    24    32    33   ar
    25    33    34   ar
    26    34    36    1
    27    36    37    1
    28    36    38    1
    29    36    39    1
    30    34    35   ar
    31     3     4    1
    32     9    10    1
    33    10    11    1
    34    16    17   ar
    35    17    18   ar
    36    18    13   ar
    37    11     5    1
    38     4     1    1
    39    35    30   ar
    40     6    12    1
    41    21    24    1
    42    26    29    1
@<TRIPOS>MOLECULE
*****
 39 42 0 0 0
SMALL
GASTEIGER

@<TRIPOS>ATOM
      1 N         143.1624  140.7329  161.0019 N.3     1  UNL1       -0.2711
      2 C         143.7153  139.5093  160.3334 C.3     1  UNL1        0.0933
      3 C         142.9796  139.8642  159.0753 C.3     1  UNL1        0.1035
      4 C         142.4267  141.0878  159.7438 C.3     1  UNL1        0.0933
      5 C         143.5504  142.5757  165.0889 C.3     1  UNL1        0.1231
      6 O         144.3905  143.5791  165.8219 O.3     1  UNL1       -0.3812
      7 C         142.4872  141.5507  164.8263 C.3     1  UNL1        0.0341
      8 C         142.3578  140.9364  163.4639 C.3     1  UNL1        0.0188
      9 C         143.2916  141.3471  162.3643 C.3     1  UNL1        0.0578
     10 C         144.3548  142.3721  162.6269 C.3     1  UNL1        0.0188
     11 C         144.4841  142.9864  163.9893 C.3     1  UNL1        0.0341
     12 H         144.0838  143.6489  166.7395 H       1  UNL1        0.2107
     13 C         141.6243  142.3888  169.1516 C.ar    1  UNL1        0.1578
     14 C         140.7724  142.3887  167.9170 C.ar    1  UNL1        0.0398
     15 C         141.4144  142.4510  166.5628 C.ar    1  UNL1        0.0202
     16 C         142.9083  142.5134  166.4431 C.ar    1  UNL1        0.0832
     17 N         143.7602  142.5135  167.6777 N.ar    1  UNL1       -0.2427
     18 C         143.1182  142.4512  169.0320 C.ar    1  UNL1        0.1353
     19 C         139.6330  142.9440  170.7253 C.3     1  UNL1        0.2525
     20 O         140.9823  142.3265  170.5058 O.3     1  UNL1       -0.4699
     21 N         142.8504  139.2499  157.7129 N.am    1  UNL1       -0.3018
     22 C         143.9179  139.4763  156.6838 C.2     1  UNL1        0.2426
     23 O         145.1146  140.3170  157.0170 O.2     1  UNL1       -0.2733
     24 H         142.0649  138.6981  157.4942 H       1  UNL1        0.1495
     25 C         143.7887  138.8620  155.3214 C.3     1  UNL1        0.1759
     26 N         143.9964  137.3875  155.1408 N.am    1  UNL1       -0.2931
     27 C         142.9115  136.4249  155.5234 C.2     1  UNL1        0.2462
     28 O         141.6189  136.9369  156.0866 O.2     1  UNL1       -0.2701
     29 H         144.8448  137.0515  154.7712 H       1  UNL1        0.1502
     30 C         143.1192  134.9503  155.3428 C.ar    1  UNL1        0.0533
     31 C         142.5425  134.2526  154.1468 C.ar    1  UNL1        0.0045
     32 C         142.7502  132.7781  153.9662 C.ar    1  UNL1        0.0001
     33 C         143.5346  132.0013  154.9817 C.ar    1  UNL1        0.0039
     34 C         144.1114  132.6990  156.1777 C.ar    1  UNL1        0.0716
     35 C         143.9037  134.1735  156.3583 C.ar    1  UNL1        0.0084
     36 C         144.8959  131.9222  157.1933 C.3     1  UNL1        0.4186
     37 F         145.6803  131.1455  158.2087 F       1  UNL1       -0.1659
     38 F         145.1999  130.8784  156.1599 F       1  UNL1       -0.1659
     39 F         144.5918  132.9661  158.2267 F       1  UNL1       -0.1659
@<TRIPOS>BOND
     1    19    20    1
     2    20    13    1
     3    13    14   ar
     4    14    15   ar
     5    15    16   ar
     6    16     5    1
     7     5     6    1
     8     5     7    1
     9     7     8    1
    10     8     9    1
    11     9     1    1
    12     1     2    1
    13     2     3    1
    14     3    21    1
    15    21    22   am
    16    22    23    2
    17    22    25    1
    18    25    26    1
    19    26    27   am
    20    27    28    2
    21    27    30    1
    22    30    31   ar
    23    31    32   ar
    24    32    33   ar
    25    33    34   ar
    26    34    36    1
    27    36    37    1
    28    36    38    1
    29    36    39    1
    30    34    35   ar
    31     3     4    1
    32     9    10    1
    33    10    11    1
    34    16    17   ar
    35    17    18   ar
    36    18    13   ar
    37    11     5    1
    38     4     1    1
    39    35    30   ar
    40     6    12    1
    41    21    24    1
    42    26    29    1
@<TRIPOS>MOLECULE
*****
 39 42 0 0 0
SMALL
GASTEIGER

@<TRIPOS>ATOM
      1 N         143.0770  139.9924  159.3496 N.3     1  UNL1       -0.2711
      2 C         143.3639  139.8922  160.8185 C.3     1  UNL1        0.0933
      3 C         143.0664  141.3539  160.9765 C.3     1  UNL1        0.1035
      4 C         142.7794  141.4541  159.5076 C.3     1  UNL1        0.0933
      5 C         143.0998  137.1044  155.8988 C.3     1  UNL1        0.1231
      6 O         143.4489  137.0590  154.4407 O.3     1  UNL1       -0.3812
      7 C         142.6335  136.6533  157.2512 C.3     1  UNL1        0.0341
      8 C         142.6259  137.6160  158.4016 C.3     1  UNL1        0.0188
      9 C         143.0846  139.0297  158.1994 C.3     1  UNL1        0.0578
     10 C         143.5509  139.4808  156.8470 C.3     1  UNL1        0.0188
     11 C         143.5585  138.5181  155.6967 C.3     1  UNL1        0.0341
     12 H         143.2777  136.1691  154.0948 H       1  UNL1        0.2107
     13 C         142.0875  132.8158  154.9861 C.ar    1  UNL1        0.1578
     14 C         141.8920  133.8718  153.9389 C.ar    1  UNL1        0.0398
     15 C         142.2295  135.3013  154.2431 C.ar    1  UNL1        0.0202
     16 C         142.7624  135.6748  155.5946 C.ar    1  UNL1        0.0832
     17 N         142.9578  134.6189  156.6417 N.ar    1  UNL1       -0.2427
     18 C         142.6204  133.1893  156.3375 C.ar    1  UNL1        0.1353
     19 C         140.5890  131.0634  153.7887 C.3     1  UNL1        0.2525
     20 O         141.7501  131.3862  154.6818 O.3     1  UNL1       -0.4699
     21 N         143.0588  142.3166  162.1268 N.am    1  UNL1       -0.3018
     22 C         144.3186  142.5708  162.9002 C.2     1  UNL1        0.2426
     23 O         145.5859  141.8624  162.5234 O.2     1  UNL1       -0.2733
     24 H         142.2270  142.7815  162.3741 H       1  UNL1        0.1495
     25 C         144.3111  143.5335  164.0505 C.3     1  UNL1        0.1759
     26 N         144.0227  143.0419  165.4380 N.am    1  UNL1       -0.2931
     27 C         142.6247  142.6570  165.8219 C.2     1  UNL1        0.2462
     28 O         141.5151  142.7636  164.8182 O.2     1  UNL1       -0.2701
     29 H         144.7510  142.9719  166.0968 H       1  UNL1        0.1502
     30 C         142.3364  142.1653  167.2094 C.ar    1  UNL1        0.0533
     31 C         143.3833  142.2779  168.2776 C.ar    1  UNL1        0.0045
     32 C         143.0949  141.7863  169.6651 C.ar    1  UNL1        0.0001
     33 C         141.7596  141.1821  169.9844 C.ar    1  UNL1        0.0039
     34 C         140.7127  141.0695  168.9161 C.ar    1  UNL1        0.0716
     35 C         141.0010  141.5612  167.5286 C.ar    1  UNL1        0.0084
     36 C         139.3773  140.4654  169.2354 C.3     1  UNL1        0.4186
     37 F         138.0421  139.8612  169.5545 F       1  UNL1       -0.1659
     38 F         139.2007  141.4476  170.3551 F       1  UNL1       -0.1659
     39 F         139.5540  139.4831  168.1155 F       1  UNL1       -0.1659
@<TRIPOS>BOND
     1    19    20    1
     2    20    13    1
     3    13    14   ar
     4    14    15   ar
     5    15    16   ar
     6    16     5    1
     7     5     6    1
     8     5     7    1
     9     7     8    1
    10     8     9    1
    11     9     1    1
    12     1     2    1
    13     2     3    1
    14     3    21    1
    15    21    22   am
    16    22    23    2
    17    22    25    1
    18    25    26    1
    19    26    27   am
    20    27    28    2
    21    27    30    1
    22    30    31   ar
    23    31    32   ar
    24    32    33   ar
    25    33    34   ar
    26    34    36    1
    27    36    37    1
    28    36    38    1
    29    36    39    1
    30    34    35   ar
    31     3     4    1
    32     9    10    1
    33    10    11    1
    34    16    17   ar
    35    17    18   ar
    36    18    13   ar
    37    11     5    1
    38     4     1    1
    39    35    30   ar
    40     6    12    1
    41    21    24    1
    42    26    29    1
@<TRIPOS>MOLECULE
*****
 39 42 0 0 0
SMALL
GASTEIGER

@<TRIPOS>ATOM
      1 N         143.1247  139.0905  160.8975 N.3     1  UNL1       -0.2711
      2 C         142.9107  137.6647  160.4836 C.3     1  UNL1        0.0933
      3 C         142.9209  138.0814  159.0427 C.3     1  UNL1        0.1035
      4 C         143.1350  139.5072  159.4566 C.3     1  UNL1        0.0933
      5 C         143.5572  141.2309  164.8321 C.3     1  UNL1        0.1231
      6 O         144.1578  142.4830  165.3992 O.3     1  UNL1       -0.3812
      7 C         142.8247  139.9236  164.7661 C.3     1  UNL1        0.0341
      8 C         142.6805  139.2101  163.4545 C.3     1  UNL1        0.0188
      9 C         143.2689  139.8039  162.2090 C.3     1  UNL1        0.0578
     10 C         144.0014  141.1112  162.2751 C.3     1  UNL1        0.0188
     11 C         144.1455  141.8247  163.5867 C.3     1  UNL1        0.0341
     12 H         143.9876  142.5198  166.3534 H       1  UNL1        0.2107
     13 C         142.4179  140.7539  169.1593 C.ar    1  UNL1        0.1578
     14 C         142.5076  139.5492  168.2702 C.ar    1  UNL1        0.0398
     15 C         142.8873  139.7082  166.8278 C.ar    1  UNL1        0.0202
     16 C         143.1774  141.0719  166.2745 C.ar    1  UNL1        0.0832
     17 N         143.0878  142.2766  167.1637 N.ar    1  UNL1       -0.2427
     18 C         142.7080  142.1176  168.6061 C.ar    1  UNL1        0.1353
     19 C         141.0672  141.5493  171.2312 C.3     1  UNL1        0.2525
     20 O         142.0382  140.5949  170.6017 O.3     1  UNL1       -0.4699
     21 N         142.7768  137.3679  157.7311 N.am    1  UNL1       -0.3018
     22 C         141.4315  137.2688  157.0751 C.2     1  UNL1        0.2426
     23 O         140.2304  137.8831  157.7307 O.2     1  UNL1       -0.2733
     24 H         143.5652  136.9647  157.3008 H       1  UNL1        0.1495
     25 C         141.2874  136.5553  155.7635 C.3     1  UNL1        0.1759
     26 N         141.4269  135.0631  155.7023 N.am    1  UNL1       -0.2931
     27 C         142.7900  134.4369  155.6971 C.2     1  UNL1        0.2462
     28 O         144.0134  135.3030  155.7532 O.2     1  UNL1       -0.2701
     29 H         140.6240  134.4947  155.6654 H       1  UNL1        0.1502
     30 C         142.9296  132.9447  155.6358 C.ar    1  UNL1        0.0533
     31 C         144.2750  132.3089  155.8240 C.ar    1  UNL1        0.0045
     32 C         144.4146  130.8167  155.7627 C.ar    1  UNL1        0.0001
     33 C         143.2086  129.9602  155.5132 C.ar    1  UNL1        0.0039
     34 C         141.8632  130.5960  155.3250 C.ar    1  UNL1        0.0716
     35 C         141.7236  132.0882  155.3863 C.ar    1  UNL1        0.0084
     36 C         140.6572  129.7396  155.0754 C.3     1  UNL1        0.4186
     37 F         139.4514  128.8832  154.8260 F       1  UNL1       -0.1659
     38 F         139.8481  130.9664  154.7756 F       1  UNL1       -0.1659
     39 F         141.4665  128.5127  155.3753 F       1  UNL1       -0.1659
@<TRIPOS>BOND
     1    19    20    1
     2    20    13    1
     3    13    14   ar
     4    14    15   ar
     5    15    16   ar
     6    16     5    1
     7     5     6    1
     8     5     7    1
     9     7     8    1
    10     8     9    1
    11     9     1    1
    12     1     2    1
    13     2     3    1
    14     3    21    1
    15    21    22   am
    16    22    23    2
    17    22    25    1
    18    25    26    1
    19    26    27   am
    20    27    28    2
    21    27    30    1
    22    30    31   ar
    23    31    32   ar
    24    32    33   ar
    25    33    34   ar
    26    34    36    1
    27    36    37    1
    28    36    38    1
    29    36    39    1
    30    34    35   ar
    31     3     4    1
    32     9    10    1
    33    10    11    1
    34    16    17   ar
    35    17    18   ar
    36    18    13   ar
    37    11     5    1
    38     4     1    1
    39    35    30   ar
    40     6    12    1
    41    21    24    1
    42    26    29    1
@<TRIPOS>MOLECULE
*****
 39 42 0 0 0
SMALL
GASTEIGER

@<TRIPOS>ATOM
      1 N         143.0480  139.2809  160.8703 N.3     1  UNL1       -0.2711
      2 C         143.0194  137.8487  160.4254 C.3     1  UNL1        0.0933
      3 C         142.8051  138.2930  159.0088 C.3     1  UNL1        0.1035
      4 C         142.8336  139.7252  159.4538 C.3     1  UNL1        0.0933
      5 C         143.5633  141.3763  164.8192 C.3     1  UNL1        0.1231
      6 O         144.1607  142.6303  165.3852 O.3     1  UNL1       -0.3812
      7 C         142.8498  140.0583  164.7571 C.3     1  UNL1        0.0341
      8 C         142.6781  139.3598  163.4407 C.3     1  UNL1        0.0188
      9 C         143.2197  139.9793  162.1867 C.3     1  UNL1        0.0578
     10 C         143.9332  141.2973  162.2488 C.3     1  UNL1        0.0188
     11 C         144.1050  141.9957  163.5651 C.3     1  UNL1        0.0341
     12 H         144.0184  142.6519  166.3445 H       1  UNL1        0.2107
     13 C         142.5607  140.8244  169.1712 C.ar    1  UNL1        0.1578
     14 C         142.8987  142.1883  168.6466 C.ar    1  UNL1        0.0398
     15 C         143.2329  142.3723  167.1959 C.ar    1  UNL1        0.0202
     16 C         143.2291  141.1923  166.2699 C.ar    1  UNL1        0.0832
     17 N         142.8911  139.8283  166.7945 N.ar    1  UNL1       -0.2427
     18 C         142.5569  139.6444  168.2452 C.ar    1  UNL1        0.1353
     19 C         140.8127  140.8105  171.0933 C.3     1  UNL1        0.2525
     20 O         142.2265  140.6404  170.6219 O.3     1  UNL1       -0.4699
     21 N         142.6333  137.5945  157.6925 N.am    1  UNL1       -0.3018
     22 C         141.2654  137.4452  157.0956 C.2     1  UNL1        0.2426
     23 O         140.0692  137.9944  157.8149 O.2     1  UNL1       -0.2733
     24 H         143.4185  137.2341  157.2204 H       1  UNL1        0.1495
     25 C         141.0936  136.7467  155.7793 C.3     1  UNL1        0.1759
     26 N         141.0435  135.2485  155.7262 N.am    1  UNL1       -0.2931
     27 C         142.2971  134.4487  155.9238 C.2     1  UNL1        0.2462
     28 O         143.6007  135.1473  156.1744 O.2     1  UNL1       -0.2701
     29 H         140.1880  134.7901  155.5617 H       1  UNL1        0.1502
     30 C         142.2471  132.9505  155.8707 C.ar    1  UNL1        0.0533
     31 C         141.2121  132.2640  155.0296 C.ar    1  UNL1        0.0045
     32 C         141.1620  130.7658  154.9765 C.ar    1  UNL1        0.0001
     33 C         142.1470  129.9541  155.7646 C.ar    1  UNL1        0.0039
     34 C         143.1820  130.6406  156.6057 C.ar    1  UNL1        0.0716
     35 C         143.2320  132.1388  156.6588 C.ar    1  UNL1        0.0084
     36 C         144.1670  129.8289  157.3938 C.3     1  UNL1        0.4186
     37 F         145.1518  129.0172  158.1817 F       1  UNL1       -0.1659
     38 F         144.5207  131.0424  158.2013 F       1  UNL1       -0.1659
     39 F         143.8131  128.6154  156.5861 F       1  UNL1       -0.1659
@<TRIPOS>BOND
     1    19    20    1
     2    20    13    1
     3    13    14   ar
     4    14    15   ar
     5    15    16   ar
     6    16     5    1
     7     5     6    1
     8     5     7    1
     9     7     8    1
    10     8     9    1
    11     9     1    1
    12     1     2    1
    13     2     3    1
    14     3    21    1
    15    21    22   am
    16    22    23    2
    17    22    25    1
    18    25    26    1
    19    26    27   am
    20    27    28    2
    21    27    30    1
    22    30    31   ar
    23    31    32   ar
    24    32    33   ar
    25    33    34   ar
    26    34    36    1
    27    36    37    1
    28    36    38    1
    29    36    39    1
    30    34    35   ar
    31     3     4    1
    32     9    10    1
    33    10    11    1
    34    16    17   ar
    35    17    18   ar
    36    18    13   ar
    37    11     5    1
    38     4     1    1
    39    35    30   ar
    40     6    12    1
    41    21    24    1
    42    26    29    1
