@<TRIPOS>MOLECULE
*****
 37 41 0 0 0
SMALL
GASTEIGER

@<TRIPOS>ATOM
      1 C         142.5219  137.8754  157.8915 C.2     1  UNL1        0.2425
      2 O         141.9097  139.2446  157.9168 O.2     1  UNL1       -0.2733
      3 N         142.9753  137.2329  159.1688 N.am    1  UNL1       -0.3018
      4 H         143.3771  136.3342  159.1521 H       1  UNL1        0.1495
      5 C         142.8165  137.9595  160.4714 C.3     1  UNL1        0.1035
      6 C         141.7212  138.0863  161.4885 C.3     1  UNL1        0.0933
      7 N         142.5917  138.9870  162.3136 N.3     1  UNL1       -0.2711
      8 C         143.6869  138.8602  161.2965 C.3     1  UNL1        0.0933
      9 C         142.4329  139.7137  163.6162 C.3     1  UNL1        0.0576
     10 C         141.7603  141.0539  163.6502 C.3     1  UNL1        0.0160
     11 C         141.6015  141.7805  164.9527 C.3     1  UNL1        0.0014
     12 C         142.1153  141.1669  166.2214 C.3     1  UNL1        0.0001
     13 C         142.7879  139.8266  166.1874 C.3     1  UNL1        0.0014
     14 C         142.9467  139.1000  164.8848 C.3     1  UNL1        0.0160
     15 C         141.9564  141.8936  167.5239 C.3     1  UNL1        0.0000
     16 C         143.0946  141.9417  168.4997 C.3     1  UNL1        0.0000
     17 C         142.9356  142.6684  169.8023 C.3     1  UNL1        0.0000
     18 C         141.6384  143.3471  170.1290 C.3     1  UNL1        0.0000
     19 C         140.5002  143.2990  169.1533 C.3     1  UNL1        0.0000
     20 C         140.6592  142.5723  167.8507 C.3     1  UNL1        0.0000
     21 C         142.6807  137.1488  156.5889 C.3     1  UNL1        0.1747
     22 N         141.9814  135.8399  156.3701 N.pl3   1  UNL1       -0.3093
     23 H         141.0461  135.8267  156.0628 H       1  UNL1        0.1487
     24 C         145.4636  132.3056  158.1766 C.3     1  UNL1        0.1537
     25 N         144.3076  132.9265  157.4498 N.ar    1  UNL1       -0.2476
     26 N         143.9166  134.3741  157.4888 N.ar    1  UNL1       -0.1544
     27 C         142.7071  134.5510  156.6194 C.ar    1  UNL1        0.1500
     28 C         142.3506  133.2127  156.0432 C.ar    1  UNL1        0.0503
     29 C         141.2530  132.7787  155.1175 C.ar    1  UNL1        0.0082
     30 C         141.1447  131.3406  154.7050 C.ar    1  UNL1        0.0716
     31 C         142.1340  130.3366  155.2182 C.ar    1  UNL1        0.0054
     32 C         143.2315  130.7707  156.1439 C.ar    1  UNL1        0.0188
     33 C         143.3398  132.2087  156.5564 C.ar    1  UNL1        0.0807
     34 C         140.0471  130.9065  153.7793 C.3     1  UNL1        0.4186
     35 F         138.9496  130.4724  152.8535 F       1  UNL1       -0.1659
     36 F         140.9320  131.1838  152.6002 F       1  UNL1       -0.1659
     37 F         139.1623  130.6292  154.9583 F       1  UNL1       -0.1659
@<TRIPOS>BOND
     1    24    25    1
     2    25    26   ar
     3    26    27   ar
     4    27    22    1
     5    22    21    1
     6    21     1    1
     7     1     2    2
     8     1     3   am
     9     3     5    1
    10     5     6    1
    11     6     7    1
    12     9     7    1
    13     9    10    1
    14    10    11    1
    15    11    12    1
    16    12    15    1
    17    15    16    1
    18    16    17    1
    19    17    18    1
    20    18    19    1
    21    19    20    1
    22    12    13    1
    23    13    14    1
    24     7     8    1
    25    27    28   ar
    26    28    29   ar
    27    29    30   ar
    28    30    34    1
    29    34    35    1
    30    34    36    1
    31    34    37    1
    32    30    31   ar
    33    31    32   ar
    34    32    33   ar
    35    33    25   ar
    36     8     5    1
    37    33    28   ar
    38    14     9    1
    39    20    15    1
    40    22    23    1
    41     3     4    1
@<TRIPOS>MOLECULE
*****
 37 41 0 0 0
SMALL
GASTEIGER

@<TRIPOS>ATOM
      1 C         142.9213  139.2684  157.7957 C.2     1  UNL1        0.2425
      2 O         142.1720  140.5077  158.1862 O.2     1  UNL1       -0.2733
      3 N         143.3376  138.2814  158.8458 N.am    1  UNL1       -0.3018
      4 H         143.8294  137.4680  158.5895 H       1  UNL1        0.1495
      5 C         143.0044  138.5338  160.2864 C.3     1  UNL1        0.1035
      6 C         143.5252  139.4547  161.3498 C.3     1  UNL1        0.0933
      7 N         142.5334  138.8909  162.3237 N.3     1  UNL1       -0.2711
      8 C         142.0127  137.9701  161.2602 C.3     1  UNL1        0.0933
      9 C         142.2002  139.1433  163.7643 C.3     1  UNL1        0.0576
     10 C         143.1846  138.7806  164.8364 C.3     1  UNL1        0.0160
     11 C         142.8515  139.0330  166.2769 C.3     1  UNL1        0.0014
     12 C         141.5340  139.6482  166.6455 C.3     1  UNL1        0.0001
     13 C         140.5496  140.0110  165.5734 C.3     1  UNL1        0.0014
     14 C         140.8828  139.7586  164.1328 C.3     1  UNL1        0.0160
     15 C         141.2010  139.9006  168.0861 C.3     1  UNL1        0.0000
     16 C         139.7875  140.2021  168.4875 C.3     1  UNL1        0.0000
     17 C         139.4546  140.4545  169.9282 C.3     1  UNL1        0.0000
     18 C         140.5351  140.4053  170.9674 C.3     1  UNL1        0.0000
     19 C         141.9486  140.1038  170.5660 C.3     1  UNL1        0.0000
     20 C         142.2815  139.8515  169.1254 C.3     1  UNL1        0.0000
     21 C         143.2545  139.0159  156.3551 C.3     1  UNL1        0.1747
     22 N         144.0102  137.7801  155.9655 N.pl3   1  UNL1       -0.3093
     23 H         144.9359  137.6511  156.2749 H       1  UNL1        0.1487
     24 C         141.1748  135.4767  152.1530 C.3     1  UNL1        0.1537
     25 N         142.0522  135.6821  153.3521 N.ar    1  UNL1       -0.2476
     26 N         142.4920  137.0046  153.9067 N.ar    1  UNL1       -0.1544
     27 C         143.3555  136.7408  155.1045 C.ar    1  UNL1        0.1500
     28 C         143.4494  135.2553  155.2903 C.ar    1  UNL1        0.0503
     29 C         144.1642  134.4140  156.3057 C.ar    1  UNL1        0.0082
     30 C         144.0735  132.9183  156.2380 C.ar    1  UNL1        0.0716
     31 C         143.2680  132.2639  155.1550 C.ar    1  UNL1        0.0054
     32 C         142.5532  133.1053  154.1396 C.ar    1  UNL1        0.0188
     33 C         142.6439  134.6010  154.2072 C.ar    1  UNL1        0.0807
     34 C         144.7884  132.0769  157.2535 C.3     1  UNL1        0.4186
     35 F         145.5032  131.2355  158.2689 F       1  UNL1       -0.1659
     36 F         144.5587  133.1348  158.2917 F       1  UNL1       -0.1659
     37 F         145.0181  131.0189  156.2152 F       1  UNL1       -0.1659
@<TRIPOS>BOND
     1    24    25    1
     2    25    26   ar
     3    26    27   ar
     4    27    22    1
     5    22    21    1
     6    21     1    1
     7     1     2    2
     8     1     3   am
     9     3     5    1
    10     5     6    1
    11     6     7    1
    12     9     7    1
    13     9    10    1
    14    10    11    1
    15    11    12    1
    16    12    15    1
    17    15    16    1
    18    16    17    1
    19    17    18    1
    20    18    19    1
    21    19    20    1
    22    12    13    1
    23    13    14    1
    24     7     8    1
    25    27    28   ar
    26    28    29   ar
    27    29    30   ar
    28    30    34    1
    29    34    35    1
    30    34    36    1
    31    34    37    1
    32    30    31   ar
    33    31    32   ar
    34    32    33   ar
    35    33    25   ar
    36     8     5    1
    37    33    28   ar
    38    14     9    1
    39    20    15    1
    40    22    23    1
    41     3     4    1
@<TRIPOS>MOLECULE
*****
 37 41 0 0 0
SMALL
GASTEIGER

@<TRIPOS>ATOM
      1 C         142.9696  138.9604  157.6674 C.2     1  UNL1        0.2425
      2 O         141.6245  138.6713  158.2651 O.2     1  UNL1       -0.2733
      3 N         144.0175  139.6596  158.4815 N.am    1  UNL1       -0.3018
      4 H         144.9003  139.8493  158.0892 H       1  UNL1        0.1495
      5 C         143.7203  140.0698  159.8934 C.3     1  UNL1        0.1035
      6 C         144.1597  139.6011  161.2490 C.3     1  UNL1        0.0933
      7 N         143.3001  140.6499  161.8902 N.3     1  UNL1       -0.2711
      8 C         142.8608  141.1186  160.5347 C.3     1  UNL1        0.0933
      9 C         143.0029  141.0601  163.3020 C.3     1  UNL1        0.0576
     10 C         141.8100  140.4926  164.0126 C.3     1  UNL1        0.0160
     11 C         141.5128  140.9028  165.4244 C.3     1  UNL1        0.0014
     12 C         142.4085  141.8806  166.1258 C.3     1  UNL1        0.0001
     13 C         143.6013  142.4481  165.4152 C.3     1  UNL1        0.0014
     14 C         143.8985  142.0379  164.0033 C.3     1  UNL1        0.0160
     15 C         142.1112  142.2907  167.5376 C.3     1  UNL1        0.0000
     16 C         143.1992  142.2688  168.5700 C.3     1  UNL1        0.0000
     17 C         142.9017  142.6790  169.9818 C.3     1  UNL1        0.0000
     18 C         141.5163  143.1110  170.3613 C.3     1  UNL1        0.0000
     19 C         140.4283  143.1329  169.3290 C.3     1  UNL1        0.0000
     20 C         140.7257  142.7227  167.9172 C.3     1  UNL1        0.0000
     21 C         143.2668  138.5501  156.2555 C.3     1  UNL1        0.1747
     22 N         143.9856  137.2617  155.9843 N.pl3   1  UNL1       -0.3093
     23 H         144.8779  137.1053  156.3698 H       1  UNL1        0.1487
     24 C         141.2343  134.9096  152.1400 C.3     1  UNL1        0.1537
     25 N         142.0802  135.1306  153.3589 N.ar    1  UNL1       -0.2476
     26 N         142.5174  136.4597  153.8996 N.ar    1  UNL1       -0.1544
     27 C         143.3448  136.2117  155.1259 C.ar    1  UNL1        0.1500
     28 C         143.4190  134.7294  155.3431 C.ar    1  UNL1        0.0503
     29 C         144.0973  133.9017  156.3942 C.ar    1  UNL1        0.0082
     30 C         143.9939  132.4059  156.3533 C.ar    1  UNL1        0.0716
     31 C         143.2123  131.7377  155.2612 C.ar    1  UNL1        0.0054
     32 C         142.5341  132.5653  154.2101 C.ar    1  UNL1        0.0188
     33 C         142.6374  134.0612  154.2510 C.ar    1  UNL1        0.0807
     34 C         144.6722  131.5781  157.4044 C.3     1  UNL1        0.4186
     35 F         145.3504  130.7504  158.4555 F       1  UNL1       -0.1659
     36 F         144.1926  130.3276  156.7291 F       1  UNL1       -0.1659
     37 F         145.1518  132.8286  158.0798 F       1  UNL1       -0.1659
@<TRIPOS>BOND
     1    24    25    1
     2    25    26   ar
     3    26    27   ar
     4    27    22    1
     5    22    21    1
     6    21     1    1
     7     1     2    2
     8     1     3   am
     9     3     5    1
    10     5     6    1
    11     6     7    1
    12     9     7    1
    13     9    10    1
    14    10    11    1
    15    11    12    1
    16    12    15    1
    17    15    16    1
    18    16    17    1
    19    17    18    1
    20    18    19    1
    21    19    20    1
    22    12    13    1
    23    13    14    1
    24     7     8    1
    25    27    28   ar
    26    28    29   ar
    27    29    30   ar
    28    30    34    1
    29    34    35    1
    30    34    36    1
    31    34    37    1
    32    30    31   ar
    33    31    32   ar
    34    32    33   ar
    35    33    25   ar
    36     8     5    1
    37    33    28   ar
    38    14     9    1
    39    20    15    1
    40    22    23    1
    41     3     4    1
@<TRIPOS>MOLECULE
*****
 37 41 0 0 0
SMALL
GASTEIGER

@<TRIPOS>ATOM
      1 C         142.6095  137.9362  157.9094 C.2     1  UNL1        0.2425
      2 O         141.7927  139.1937  157.9512 O.2     1  UNL1       -0.2733
      3 N         143.0327  137.2740  159.1870 N.am    1  UNL1       -0.3018
      4 H         143.5688  136.4487  159.1595 H       1  UNL1        0.1495
      5 C         142.6392  137.8692  160.5064 C.3     1  UNL1        0.1035
      6 C         141.3425  138.2741  161.1428 C.3     1  UNL1        0.0933
      7 N         142.0825  138.7110  162.3723 N.3     1  UNL1       -0.2711
      8 C         143.3790  138.3061  161.7358 C.3     1  UNL1        0.0933
      9 C         141.6889  139.3062  163.6917 C.3     1  UNL1        0.0576
     10 C         140.9277  140.5980  163.7345 C.3     1  UNL1        0.0160
     11 C         140.5341  141.1932  165.0538 C.3     1  UNL1        0.0014
     12 C         140.9018  140.4967  166.3305 C.3     1  UNL1        0.0001
     13 C         141.6630  139.2049  166.2876 C.3     1  UNL1        0.0014
     14 C         142.0566  138.6097  164.9682 C.3     1  UNL1        0.0160
     15 C         140.5082  141.0920  167.6498 C.3     1  UNL1        0.0000
     16 C         139.7786  140.2584  168.6611 C.3     1  UNL1        0.0000
     17 C         139.3850  140.8538  169.9804 C.3     1  UNL1        0.0000
     18 C         139.7210  142.2829  170.2884 C.3     1  UNL1        0.0000
     19 C         140.4506  143.1165  169.2772 C.3     1  UNL1        0.0000
     20 C         140.8442  142.5211  167.9579 C.3     1  UNL1        0.0000
     21 C         143.0030  137.3410  156.5900 C.3     1  UNL1        0.1747
     22 N         143.7480  136.0397  156.5466 N.pl3   1  UNL1       -0.3093
     23 H         144.5069  135.8864  157.1547 H       1  UNL1        0.1487
     24 C         141.7948  133.6073  152.2864 C.3     1  UNL1        0.1537
     25 N         142.4389  133.8540  153.6184 N.ar    1  UNL1       -0.2476
     26 N         142.6664  135.1939  154.2532 N.ar    1  UNL1       -0.1544
     27 C         143.3367  134.9720  155.5766 C.ar    1  UNL1        0.1500
     28 C         143.5236  133.4950  155.7598 C.ar    1  UNL1        0.0503
     29 C         144.1272  132.6900  156.8722 C.ar    1  UNL1        0.0082
     30 C         144.1760  131.1940  156.7744 C.ar    1  UNL1        0.0716
     31 C         143.6212  130.5031  155.5641 C.ar    1  UNL1        0.0054
     32 C         143.0175  131.3080  154.4517 C.ar    1  UNL1        0.0188
     33 C         142.9687  132.8040  154.5495 C.ar    1  UNL1        0.0807
     34 C         144.7797  130.3890  157.8868 C.3     1  UNL1        0.4186
     35 F         145.3834  129.5840  158.9992 F       1  UNL1       -0.1659
     36 F         145.5973  131.5760  158.3021 F       1  UNL1       -0.1659
     37 F         143.9622  129.2019  157.4715 F       1  UNL1       -0.1659
@<TRIPOS>BOND
     1    24    25    1
     2    25    26   ar
     3    26    27   ar
     4    27    22    1
     5    22    21    1
     6    21     1    1
     7     1     2    2
     8     1     3   am
     9     3     5    1
    10     5     6    1
    11     6     7    1
    12     9     7    1
    13     9    10    1
    14    10    11    1
    15    11    12    1
    16    12    15    1
    17    15    16    1
    18    16    17    1
    19    17    18    1
    20    18    19    1
    21    19    20    1
    22    12    13    1
    23    13    14    1
    24     7     8    1
    25    27    28   ar
    26    28    29   ar
    27    29    30   ar
    28    30    34    1
    29    34    35    1
    30    34    36    1
    31    34    37    1
    32    30    31   ar
    33    31    32   ar
    34    32    33   ar
    35    33    25   ar
    36     8     5    1
    37    33    28   ar
    38    14     9    1
    39    20    15    1
    40    22    23    1
    41     3     4    1
@<TRIPOS>MOLECULE
*****
 37 41 0 0 0
SMALL
GASTEIGER

@<TRIPOS>ATOM
      1 C         138.2224  142.8980  162.2249 C.2     1  UNL1        0.2425
      2 O         137.2967  141.7244  162.0993 O.2     1  UNL1       -0.2733
      3 N         139.5058  142.9273  161.4491 N.am    1  UNL1       -0.3018
      4 H         140.1134  143.6976  161.5316 H       1  UNL1        0.1495
      5 C         139.8636  141.7830  160.5477 C.3     1  UNL1        0.1035
      6 C         140.1186  141.6306  159.0773 C.3     1  UNL1        0.0933
      7 N         140.3695  140.1647  159.2729 N.3     1  UNL1       -0.2711
      8 C         140.1145  140.3172  160.7431 C.3     1  UNL1        0.0933
      9 C         140.7273  139.0204  158.3715 C.3     1  UNL1        0.0576
     10 C         139.6970  138.4441  157.4461 C.3     1  UNL1        0.0160
     11 C         140.0547  137.2998  156.5448 C.3     1  UNL1        0.0014
     12 C         141.4428  136.7317  156.5687 C.3     1  UNL1        0.0001
     13 C         142.4731  137.3080  157.4940 C.3     1  UNL1        0.0014
     14 C         142.1154  138.4524  158.3954 C.3     1  UNL1        0.0160
     15 C         141.8004  135.5874  155.6673 C.3     1  UNL1        0.0000
     16 C         142.4558  134.3628  156.2337 C.3     1  UNL1        0.0000
     17 C         142.8133  133.2185  155.3321 C.3     1  UNL1        0.0000
     18 C         142.5156  133.2989  153.8642 C.3     1  UNL1        0.0000
     19 C         141.8602  134.5234  153.2977 C.3     1  UNL1        0.0000
     20 C         141.5026  135.6677  154.1992 C.3     1  UNL1        0.0000
     21 C         137.8647  144.0424  163.1263 C.3     1  UNL1        0.1747
     22 N         138.4576  144.1276  164.5016 N.pl3   1  UNL1       -0.3093
     23 H         138.0039  144.6503  165.2017 H       1  UNL1        0.1487
     24 C         143.5979  143.0718  165.0878 C.3     1  UNL1        0.1537
     25 N         142.1045  142.9311  165.0794 N.ar    1  UNL1       -0.2476
     26 N         141.1221  143.9839  164.6593 N.ar    1  UNL1       -0.1544
     27 C         139.7418  143.4164  164.8100 C.ar    1  UNL1        0.1500
     28 C         139.8711  142.0129  165.3232 C.ar    1  UNL1        0.0503
     29 C         138.8479  140.9693  165.6604 C.ar    1  UNL1        0.0082
     30 C         139.2849  139.6257  166.1642 C.ar    1  UNL1        0.0716
     31 C         140.7451  139.3258  166.3307 C.ar    1  UNL1        0.0054
     32 C         141.7684  140.3694  165.9935 C.ar    1  UNL1        0.0188
     33 C         141.3314  141.7130  165.4898 C.ar    1  UNL1        0.0807
     34 C         138.2616  138.5820  166.5014 C.3     1  UNL1        0.4186
     35 F         137.2384  137.5383  166.8386 F       1  UNL1       -0.1659
     36 F         138.5229  137.9022  165.1901 F       1  UNL1       -0.1659
     37 F         138.0004  139.2618  167.8127 F       1  UNL1       -0.1659
@<TRIPOS>BOND
     1    24    25    1
     2    25    26   ar
     3    26    27   ar
     4    27    22    1
     5    22    21    1
     6    21     1    1
     7     1     2    2
     8     1     3   am
     9     3     5    1
    10     5     6    1
    11     6     7    1
    12     9     7    1
    13     9    10    1
    14    10    11    1
    15    11    12    1
    16    12    15    1
    17    15    16    1
    18    16    17    1
    19    17    18    1
    20    18    19    1
    21    19    20    1
    22    12    13    1
    23    13    14    1
    24     7     8    1
    25    27    28   ar
    26    28    29   ar
    27    29    30   ar
    28    30    34    1
    29    34    35    1
    30    34    36    1
    31    34    37    1
    32    30    31   ar
    33    31    32   ar
    34    32    33   ar
    35    33    25   ar
    36     8     5    1
    37    33    28   ar
    38    14     9    1
    39    20    15    1
    40    22    23    1
    41     3     4    1
@<TRIPOS>MOLECULE
*****
 37 41 0 0 0
SMALL
GASTEIGER

@<TRIPOS>ATOM
      1 C         141.3096  143.5600  158.8843 C.2     1  UNL1        0.2425
      2 O         142.7288  143.2897  158.4807 O.2     1  UNL1       -0.2733
      3 N         140.2696  142.4899  158.7316 N.am    1  UNL1       -0.3018
      4 H         139.3382  142.6673  158.9965 H       1  UNL1        0.1495
      5 C         140.6489  141.1495  158.1753 C.3     1  UNL1        0.1035
      6 C         141.0542  140.6378  156.8247 C.3     1  UNL1        0.0933
      7 N         141.1853  139.2539  157.3884 N.3     1  UNL1       -0.2711
      8 C         140.7801  139.7657  158.7389 C.3     1  UNL1        0.0933
      9 C         141.5646  137.9135  156.8321 C.3     1  UNL1        0.0576
     10 C         142.9138  137.3311  157.1329 C.3     1  UNL1        0.0160
     11 C         143.2931  135.9908  156.5766 C.3     1  UNL1        0.0014
     12 C         142.3231  135.2327  155.7194 C.3     1  UNL1        0.0001
     13 C         140.9740  135.8151  155.4186 C.3     1  UNL1        0.0014
     14 C         140.5947  137.1555  155.9749 C.3     1  UNL1        0.0160
     15 C         142.7025  133.8924  155.1632 C.3     1  UNL1        0.0000
     16 C         143.6589  133.0127  155.9124 C.3     1  UNL1        0.0000
     17 C         144.0383  131.6724  155.3560 C.3     1  UNL1        0.0000
     18 C         143.4611  131.2117  154.0504 C.3     1  UNL1        0.0000
     19 C         142.5047  132.0913  153.3011 C.3     1  UNL1        0.0000
     20 C         142.1254  133.4316  153.8575 C.3     1  UNL1        0.0000
     21 C         140.9303  144.9004  159.4406 C.3     1  UNL1        0.1747
     22 N         141.7044  145.4836  160.5856 N.pl3   1  UNL1       -0.3093
     23 H         141.8986  146.4485  160.6078 H       1  UNL1        0.1487
     24 C         144.6854  142.2281  163.4832 C.3     1  UNL1        0.1537
     25 N         143.5529  143.1002  163.0285 N.ar    1  UNL1       -0.2476
     26 N         143.4901  143.8626  161.7383 N.ar    1  UNL1       -0.1544
     27 C         142.1827  144.5965  161.6967 C.ar    1  UNL1        0.1500
     28 C         141.4373  144.2878  162.9612 C.ar    1  UNL1        0.0503
     29 C         140.0969  144.7293  163.4695 C.ar    1  UNL1        0.0082
     30 C         139.6034  144.2459  164.8010 C.ar    1  UNL1        0.0716
     31 C         140.4502  143.3211  165.6241 C.ar    1  UNL1        0.0054
     32 C         141.7906  142.8796  165.1158 C.ar    1  UNL1        0.0188
     33 C         142.2841  143.3630  163.7844 C.ar    1  UNL1        0.0807
     34 C         138.2629  144.6874  165.3093 C.3     1  UNL1        0.4186
     35 F         136.9225  145.1288  165.8176 F       1  UNL1       -0.1659
     36 F         137.6374  144.2896  164.0053 F       1  UNL1       -0.1659
     37 F         138.8884  145.0852  166.6133 F       1  UNL1       -0.1659
@<TRIPOS>BOND
     1    24    25    1
     2    25    26   ar
     3    26    27   ar
     4    27    22    1
     5    22    21    1
     6    21     1    1
     7     1     2    2
     8     1     3   am
     9     3     5    1
    10     5     6    1
    11     6     7    1
    12     9     7    1
    13     9    10    1
    14    10    11    1
    15    11    12    1
    16    12    15    1
    17    15    16    1
    18    16    17    1
    19    17    18    1
    20    18    19    1
    21    19    20    1
    22    12    13    1
    23    13    14    1
    24     7     8    1
    25    27    28   ar
    26    28    29   ar
    27    29    30   ar
    28    30    34    1
    29    34    35    1
    30    34    36    1
    31    34    37    1
    32    30    31   ar
    33    31    32   ar
    34    32    33   ar
    35    33    25   ar
    36     8     5    1
    37    33    28   ar
    38    14     9    1
    39    20    15    1
    40    22    23    1
    41     3     4    1
@<TRIPOS>MOLECULE
*****
 37 41 0 0 0
SMALL
GASTEIGER

@<TRIPOS>ATOM
      1 C         142.1935  137.7617  158.3680 C.2     1  UNL1        0.2425
      2 O         143.2200  137.3654  159.3874 O.2     1  UNL1       -0.2733
      3 N         141.0372  138.6302  158.7664 N.am    1  UNL1       -0.3018
      4 H         140.3635  138.8903  158.0973 H       1  UNL1        0.1495
      5 C         140.9075  139.1023  160.1842 C.3     1  UNL1        0.1035
      6 C         139.9590  138.8235  161.3124 C.3     1  UNL1        0.0933
      7 N         140.7240  139.7699  162.1894 N.3     1  UNL1       -0.2711
      8 C         141.6724  140.0487  161.0612 C.3     1  UNL1        0.0933
      9 C         140.5942  140.2420  163.6073 C.3     1  UNL1        0.0576
     10 C         141.2830  139.4968  164.7119 C.3     1  UNL1        0.0160
     11 C         141.1533  139.9689  166.1296 C.3     1  UNL1        0.0014
     12 C         140.3348  141.1863  166.4430 C.3     1  UNL1        0.0001
     13 C         139.6460  141.9315  165.3383 C.3     1  UNL1        0.0014
     14 C         139.7757  141.4594  163.9205 C.3     1  UNL1        0.0160
     15 C         140.2052  141.6583  167.8608 C.3     1  UNL1        0.0000
     16 C         140.6305  143.0484  168.2305 C.3     1  UNL1        0.0000
     17 C         140.5008  143.5203  169.6484 C.3     1  UNL1        0.0000
     18 C         139.9458  142.6021  170.6966 C.3     1  UNL1        0.0000
     19 C         139.5204  141.2120  170.3270 C.3     1  UNL1        0.0000
     20 C         139.6501  140.7401  168.9091 C.3     1  UNL1        0.0000
     21 C         142.3232  137.2896  156.9501 C.3     1  UNL1        0.1747
     22 N         141.1441  136.6793  156.2520 N.pl3   1  UNL1       -0.3093
     23 H         140.2359  137.0106  156.4384 H       1  UNL1        0.1487
     24 C         140.7287  133.6222  151.9669 C.3     1  UNL1        0.1537
     25 N         141.1578  134.1590  153.3002 N.ar    1  UNL1       -0.2476
     26 N         140.6506  135.4116  153.9510 N.ar    1  UNL1       -0.1544
     27 C         141.3487  135.5641  155.2699 C.ar    1  UNL1        0.1500
     28 C         142.2873  134.4057  155.4342 C.ar    1  UNL1        0.0503
     29 C         143.2342  134.0295  156.5350 C.ar    1  UNL1        0.0082
     30 C         144.0632  132.7848  156.4184 C.ar    1  UNL1        0.0716
     31 C         143.9452  131.9164  155.2011 C.ar    1  UNL1        0.0054
     32 C         142.9983  132.2926  154.1003 C.ar    1  UNL1        0.0188
     33 C         142.1694  133.5373  154.2169 C.ar    1  UNL1        0.0807
     34 C         145.0101  132.4085  157.5193 C.3     1  UNL1        0.4186
     35 F         145.9570  132.0323  158.6201 F       1  UNL1       -0.1659
     36 F         144.5033  133.5527  158.3463 F       1  UNL1       -0.1659
     37 F         145.5169  131.2644  156.6923 F       1  UNL1       -0.1659
@<TRIPOS>BOND
     1    24    25    1
     2    25    26   ar
     3    26    27   ar
     4    27    22    1
     5    22    21    1
     6    21     1    1
     7     1     2    2
     8     1     3   am
     9     3     5    1
    10     5     6    1
    11     6     7    1
    12     9     7    1
    13     9    10    1
    14    10    11    1
    15    11    12    1
    16    12    15    1
    17    15    16    1
    18    16    17    1
    19    17    18    1
    20    18    19    1
    21    19    20    1
    22    12    13    1
    23    13    14    1
    24     7     8    1
    25    27    28   ar
    26    28    29   ar
    27    29    30   ar
    28    30    34    1
    29    34    35    1
    30    34    36    1
    31    34    37    1
    32    30    31   ar
    33    31    32   ar
    34    32    33   ar
    35    33    25   ar
    36     8     5    1
    37    33    28   ar
    38    14     9    1
    39    20    15    1
    40    22    23    1
    41     3     4    1
@<TRIPOS>MOLECULE
*****
 37 41 0 0 0
SMALL
GASTEIGER

@<TRIPOS>ATOM
      1 C         139.5090  143.2597  161.5754 C.2     1  UNL1        0.2425
      2 O         138.3869  142.9570  160.6271 O.2     1  UNL1       -0.2733
      3 N         140.7683  142.4459  161.5315 N.am    1  UNL1       -0.3018
      4 H         141.5048  142.6446  162.1539 H       1  UNL1        0.1495
      5 C         140.9055  141.3294  160.5392 C.3     1  UNL1        0.1035
      6 C         140.8368  141.2245  159.0443 C.3     1  UNL1        0.0933
      7 N         141.0995  139.7505  159.1357 N.3     1  UNL1       -0.2711
      8 C         141.1681  139.8555  160.6305 C.3     1  UNL1        0.0933
      9 C         141.2366  138.6340  158.1434 C.3     1  UNL1        0.0576
     10 C         142.5333  137.8889  158.0273 C.3     1  UNL1        0.0160
     11 C         142.6705  136.7725  157.0351 C.3     1  UNL1        0.0014
     12 C         141.5110  136.4011  156.1588 C.3     1  UNL1        0.0001
     13 C         140.2143  137.1462  156.2749 C.3     1  UNL1        0.0014
     14 C         140.0772  138.2627  157.2672 C.3     1  UNL1        0.0160
     15 C         141.6483  135.2846  155.1666 C.3     1  UNL1        0.0000
     16 C         141.6372  135.5821  153.6964 C.3     1  UNL1        0.0000
     17 C         141.7745  134.4655  152.7043 C.3     1  UNL1        0.0000
     18 C         141.9229  133.0515  153.1823 C.3     1  UNL1        0.0000
     19 C         141.9340  132.7539  154.6524 C.3     1  UNL1        0.0000
     20 C         141.7967  133.8705  155.6445 C.3     1  UNL1        0.0000
     21 C         139.3718  144.3761  162.5677 C.3     1  UNL1        0.1747
     22 N         138.5588  144.1775  163.8126 N.pl3   1  UNL1       -0.3093
     23 H         137.6633  144.5800  163.8852 H       1  UNL1        0.1487
     24 C         140.7321  142.8299  168.4323 C.3     1  UNL1        0.1537
     25 N         140.1092  142.7461  167.0703 N.ar    1  UNL1       -0.2476
     26 N         139.6777  143.9078  166.2252 N.ar    1  UNL1       -0.1544
     27 C         139.1103  143.3655  164.9469 C.ar    1  UNL1        0.1500
     28 C         139.1912  141.8687  165.0020 C.ar    1  UNL1        0.0503
     29 C         138.7825  140.8049  164.0267 C.ar    1  UNL1        0.0082
     30 C         138.9912  139.3583  164.3638 C.ar    1  UNL1        0.0716
     31 C         139.6086  138.9755  165.6761 C.ar    1  UNL1        0.0054
     32 C         140.0173  140.0393  166.6514 C.ar    1  UNL1        0.0188
     33 C         139.8086  141.4859  166.3143 C.ar    1  UNL1        0.0807
     34 C         138.5825  138.2944  163.3885 C.3     1  UNL1        0.4186
     35 F         138.1738  137.2305  162.4132 F       1  UNL1       -0.1659
     36 F         138.4478  139.3317  162.3134 F       1  UNL1       -0.1659
     37 F         138.7172  137.2570  164.4635 F       1  UNL1       -0.1659
@<TRIPOS>BOND
     1    24    25    1
     2    25    26   ar
     3    26    27   ar
     4    27    22    1
     5    22    21    1
     6    21     1    1
     7     1     2    2
     8     1     3   am
     9     3     5    1
    10     5     6    1
    11     6     7    1
    12     9     7    1
    13     9    10    1
    14    10    11    1
    15    11    12    1
    16    12    15    1
    17    15    16    1
    18    16    17    1
    19    17    18    1
    20    18    19    1
    21    19    20    1
    22    12    13    1
    23    13    14    1
    24     7     8    1
    25    27    28   ar
    26    28    29   ar
    27    29    30   ar
    28    30    34    1
    29    34    35    1
    30    34    36    1
    31    34    37    1
    32    30    31   ar
    33    31    32   ar
    34    32    33   ar
    35    33    25   ar
    36     8     5    1
    37    33    28   ar
    38    14     9    1
    39    20    15    1
    40    22    23    1
    41     3     4    1
@<TRIPOS>MOLECULE
*****
 37 41 0 0 0
SMALL
GASTEIGER

@<TRIPOS>ATOM
      1 C         139.5346  142.9695  161.4952 C.2     1  UNL1        0.2425
      2 O         138.3896  142.6048  160.5975 O.2     1  UNL1       -0.2733
      3 N         140.8249  142.2092  161.4114 N.am    1  UNL1       -0.3018
      4 H         141.5765  142.4486  162.0006 H       1  UNL1        0.1495
      5 C         140.9702  141.0842  160.4300 C.3     1  UNL1        0.1035
      6 C         140.4701  139.6720  160.3537 C.3     1  UNL1        0.0933
      7 N         141.1755  139.4931  159.0420 N.3     1  UNL1       -0.2711
      8 C         141.6755  140.9053  159.1184 C.3     1  UNL1        0.0933
      9 C         141.3207  138.3681  158.0606 C.3     1  UNL1        0.0576
     10 C         140.2173  138.0742  157.0879 C.3     1  UNL1        0.0160
     11 C         140.3625  136.9493  156.1065 C.3     1  UNL1        0.0014
     12 C         141.6112  136.1181  156.0976 C.3     1  UNL1        0.0001
     13 C         142.7146  136.4120  157.0703 C.3     1  UNL1        0.0014
     14 C         142.5694  137.5370  158.0518 C.3     1  UNL1        0.0160
     15 C         141.7563  134.9932  155.1162 C.3     1  UNL1        0.0000
     16 C         142.0159  133.5993  155.6058 C.3     1  UNL1        0.0000
     17 C         142.1610  132.4744  154.6242 C.3     1  UNL1        0.0000
     18 C         142.0466  132.7434  153.1529 C.3     1  UNL1        0.0000
     19 C         141.7870  134.1372  152.6632 C.3     1  UNL1        0.0000
     20 C         141.6419  135.2621  153.6448 C.3     1  UNL1        0.0000
     21 C         139.3894  144.0945  162.4766 C.3     1  UNL1        0.1747
     22 N         138.9498  143.8112  163.8826 N.pl3   1  UNL1       -0.3093
     23 H         138.5770  144.5343  164.4370 H       1  UNL1        0.1487
     24 C         138.6806  138.5652  164.4192 C.3     1  UNL1        0.1537
     25 N         138.9545  140.0148  164.6905 N.ar    1  UNL1       -0.2476
     26 N         138.6337  141.1591  163.7753 N.ar    1  UNL1       -0.1544
     27 C         139.0783  142.4261  164.4439 C.ar    1  UNL1        0.1500
     28 C         139.6739  142.0649  165.7723 C.ar    1  UNL1        0.0503
     29 C         140.2760  142.9004  166.8629 C.ar    1  UNL1        0.0082
     30 C         140.8016  142.2457  168.1058 C.ar    1  UNL1        0.0716
     31 C         140.7251  140.7554  168.2582 C.ar    1  UNL1        0.0054
     32 C         140.1230  139.9199  167.1677 C.ar    1  UNL1        0.0188
     33 C         139.5974  140.5746  165.9248 C.ar    1  UNL1        0.0807
     34 C         141.4037  143.0812  169.1964 C.3     1  UNL1        0.4186
     35 F         142.0059  143.9167  170.2870 F       1  UNL1       -0.1659
     36 F         142.7407  142.4511  168.9410 F       1  UNL1       -0.1659
     37 F         140.0667  143.7114  169.4519 F       1  UNL1       -0.1659
@<TRIPOS>BOND
     1    24    25    1
     2    25    26   ar
     3    26    27   ar
     4    27    22    1
     5    22    21    1
     6    21     1    1
     7     1     2    2
     8     1     3   am
     9     3     5    1
    10     5     6    1
    11     6     7    1
    12     9     7    1
    13     9    10    1
    14    10    11    1
    15    11    12    1
    16    12    15    1
    17    15    16    1
    18    16    17    1
    19    17    18    1
    20    18    19    1
    21    19    20    1
    22    12    13    1
    23    13    14    1
    24     7     8    1
    25    27    28   ar
    26    28    29   ar
    27    29    30   ar
    28    30    34    1
    29    34    35    1
    30    34    36    1
    31    34    37    1
    32    30    31   ar
    33    31    32   ar
    34    32    33   ar
    35    33    25   ar
    36     8     5    1
    37    33    28   ar
    38    14     9    1
    39    20    15    1
    40    22    23    1
    41     3     4    1
