@<TRIPOS>MOLECULE
*****
 43 46 0 0 0
SMALL
GASTEIGER

@<TRIPOS>ATOM
      1 C         141.3831  142.4821  162.4554 C.3     1  UNL1        0.0823
      2 C         141.8485  142.3911  163.8785 C.ar    1  UNL1        0.0375
      3 C         140.9775  141.7408  164.9122 C.ar    1  UNL1        0.0023
      4 C         141.4428  141.6498  166.3353 C.ar    1  UNL1        0.0183
      5 C         140.5718  140.9996  167.3690 C.ar    1  UNL1        0.0118
      6 C         141.0372  140.9086  168.7922 C.ar    1  UNL1        0.0685
      7 C         142.3734  141.4678  169.1815 C.ar    1  UNL1        0.0118
      8 C         143.2444  142.1181  168.1478 C.ar    1  UNL1        0.0199
      9 C         142.7791  142.2091  166.7247 C.ar    1  UNL1        0.0844
     10 N         143.6501  142.8593  165.6910 N.ar    1  UNL1       -0.2119
     11 C         143.1847  142.9503  164.2679 C.ar    1  UNL1        0.2211
     12 C         140.1662  140.2584  169.8259 C.1     1  UNL1        0.1004
     13 N         139.2952  139.6081  170.8596 N.1     1  UNL1       -0.1908
     14 O         144.0557  143.6006  163.2341 O.3     1  UNL1       -0.4563
     15 C         144.0368  145.0911  163.0675 C.3     1  UNL1        0.2542
     16 C         143.6400  140.1062  160.2167 C.ar    1  UNL1        0.1577
     17 C         144.0445  141.0485  159.1219 C.ar    1  UNL1        0.1388
     18 N         143.5618  142.4687  159.1383 N.ar    1  UNL1       -0.2072
     19 C         142.6747  142.9465  160.2495 C.ar    1  UNL1        0.2213
     20 C         142.2702  142.0042  161.3442 C.ar    1  UNL1        0.0405
     21 C         142.7528  140.5841  161.3278 C.ar    1  UNL1        0.0393
     22 C         143.9580  137.8240  161.4167 C.3     1  UNL1        0.2525
     23 O         144.1226  138.6861  160.2003 O.3     1  UNL1       -0.4699
     24 O         142.1921  144.3666  160.2659 O.3     1  UNL1       -0.4563
     25 C         141.3197  144.8752  159.1566 C.3     1  UNL1        0.2542
     26 C         140.0307  143.0509  162.1435 C.3     1  UNL1        0.1163
     27 O         140.4923  144.4015  162.6048 O.3     1  UNL1       -0.3820
     28 H         141.3947  144.3328  162.9541 H       1  UNL1        0.2107
     29 C         139.5690  141.7004  161.6821 C.ar    1  UNL1        0.0117
     30 C         139.4373  140.5762  162.6663 C.ar    1  UNL1        0.0559
     31 C         138.9757  139.2256  162.2050 C.ar    1  UNL1        0.2272
     32 N         138.6457  138.9992  160.7594 N.ar    1  UNL1       -0.1767
     33 C         138.7775  140.1234  159.7751 C.ar    1  UNL1        0.2272
     34 C         139.2391  141.4740  160.2365 C.ar    1  UNL1        0.0559
     35 O         138.8440  138.1014  163.1893 O.3     1  UNL1       -0.4561
     36 C         138.8382  138.3901  164.6612 C.3     1  UNL1        0.2542
     37 O         138.4475  139.8971  158.3294 O.3     1  UNL1       -0.4561
     38 C         137.6897  140.9389  157.5611 C.3     1  UNL1        0.2542
     39 C         138.6782  143.6198  161.8316 C.3     1  UNL1        0.0491
     40 C         137.9102  144.3526  162.8914 C.3     1  UNL1        0.0750
     41 N         138.0120  143.9217  164.3246 N.3     1  UNL1       -0.2702
     42 C         138.5793  144.8574  165.3506 C.3     1  UNL1        0.0897
     43 C         137.5466  142.5550  164.7318 C.3     1  UNL1        0.0897
@<TRIPOS>BOND
     1    22    23    1
     2    23    16    1
     3    16    17   ar
     4    17    18   ar
     5    18    19   ar
     6    19    24    1
     7    24    25    1
     8    19    20   ar
     9     1    20    1
    10     1     2    1
    11     2     3   ar
    12     3     4   ar
    13     4     5   ar
    14     5     6   ar
    15     6    12    1
    16    12    13    3
    17     6     7   ar
    18     7     8   ar
    19     8     9   ar
    20     9    10   ar
    21    10    11   ar
    22    11    14    1
    23    14    15    1
    24     1    26    1
    25    26    27    1
    26    26    39    1
    27    39    40    1
    28    40    41    1
    29    41    42    1
    30    41    43    1
    31    26    29    1
    32    29    30   ar
    33    30    31   ar
    34    31    35    1
    35    35    36    1
    36    31    32   ar
    37    32    33   ar
    38    33    37    1
    39    37    38    1
    40    33    34   ar
    41    20    21   ar
    42    21    16   ar
    43    11     2   ar
    44    34    29   ar
    45     9     4   ar
    46    27    28    1
@<TRIPOS>MOLECULE
*****
 43 46 0 0 0
SMALL
GASTEIGER

@<TRIPOS>ATOM
      1 C         141.4376  142.4797  162.5026 C.3     1  UNL1        0.0823
      2 C         141.9065  142.3986  163.9252 C.ar    1  UNL1        0.0375
      3 C         141.0497  141.7322  164.9605 C.ar    1  UNL1        0.0023
      4 C         141.5187  141.6511  166.3830 C.ar    1  UNL1        0.0183
      5 C         140.6619  140.9848  167.4183 C.ar    1  UNL1        0.0118
      6 C         141.1308  140.9037  168.8408 C.ar    1  UNL1        0.0685
      7 C         142.4566  141.4889  169.2280 C.ar    1  UNL1        0.0118
      8 C         143.3134  142.1552  168.1927 C.ar    1  UNL1        0.0199
      9 C         142.8444  142.2364  166.7702 C.ar    1  UNL1        0.0844
     10 N         143.7012  142.9027  165.7349 N.ar    1  UNL1       -0.2119
     11 C         143.2323  142.9838  164.3123 C.ar    1  UNL1        0.2211
     12 C         140.2741  140.2373  169.8761 C.1     1  UNL1        0.1004
     13 N         139.4173  139.5710  170.9115 N.1     1  UNL1       -0.1908
     14 O         144.0891  143.6502  163.2770 O.3     1  UNL1       -0.4563
     15 C         144.0600  145.1423  163.1267 C.3     1  UNL1        0.2542
     16 C         143.7245  140.1272  160.2697 C.ar    1  UNL1        0.1577
     17 C         144.1105  141.0696  159.1684 C.ar    1  UNL1        0.1388
     18 N         143.6056  142.4821  159.1786 N.ar    1  UNL1       -0.2072
     19 C         142.7146  142.9521  160.2900 C.ar    1  UNL1        0.2213
     20 C         142.3285  142.0097  161.3912 C.ar    1  UNL1        0.0405
     21 C         142.8334  140.5973  161.3811 C.ar    1  UNL1        0.0393
     22 C         143.9287  137.8027  161.4117 C.3     1  UNL1        0.2525
     23 O         144.2293  138.7148  160.2596 O.3     1  UNL1       -0.4699
     24 O         142.2097  144.3645  160.3001 O.3     1  UNL1       -0.4563
     25 C         141.3195  144.8507  159.1950 C.3     1  UNL1        0.2542
     26 C         140.0776  143.0308  162.1916 C.3     1  UNL1        0.1163
     27 O         140.5220  144.3874  162.6522 O.3     1  UNL1       -0.3820
     28 H         141.4254  144.3306  163.0008 H       1  UNL1        0.2107
     29 C         139.6332  141.6742  161.7310 C.ar    1  UNL1        0.0117
     30 C         139.3047  141.4432  160.2857 C.ar    1  UNL1        0.0559
     31 C         138.8603  140.0866  159.8251 C.ar    1  UNL1        0.2272
     32 N         138.7444  138.9610  160.8097 N.ar    1  UNL1       -0.1767
     33 C         139.0730  139.1920  162.2549 C.ar    1  UNL1        0.2272
     34 C         139.5173  140.5486  162.7155 C.ar    1  UNL1        0.0559
     35 O         138.5318  139.8557  158.3798 O.3     1  UNL1       -0.4561
     36 C         137.8038  140.9092  157.5986 C.3     1  UNL1        0.2542
     37 O         138.9571  138.0663  163.2396 O.3     1  UNL1       -0.4561
     38 C         139.8304  138.0437  164.4590 C.3     1  UNL1        0.2542
     39 C         138.7176  143.5819  161.8805 C.3     1  UNL1        0.0491
     40 C         137.9758  144.3762  162.9144 C.3     1  UNL1        0.0750
     41 N         138.0214  143.9601  164.3549 N.3     1  UNL1       -0.2702
     42 C         138.5311  144.9131  165.3950 C.3     1  UNL1        0.0897
     43 C         137.5572  142.5910  164.7551 C.3     1  UNL1        0.0897
@<TRIPOS>BOND
     1    22    23    1
     2    23    16    1
     3    16    17   ar
     4    17    18   ar
     5    18    19   ar
     6    19    24    1
     7    24    25    1
     8    19    20   ar
     9     1    20    1
    10     1     2    1
    11     2     3   ar
    12     3     4   ar
    13     4     5   ar
    14     5     6   ar
    15     6    12    1
    16    12    13    3
    17     6     7   ar
    18     7     8   ar
    19     8     9   ar
    20     9    10   ar
    21    10    11   ar
    22    11    14    1
    23    14    15    1
    24     1    26    1
    25    26    27    1
    26    26    39    1
    27    39    40    1
    28    40    41    1
    29    41    42    1
    30    41    43    1
    31    26    29    1
    32    29    30   ar
    33    30    31   ar
    34    31    35    1
    35    35    36    1
    36    31    32   ar
    37    32    33   ar
    38    33    37    1
    39    37    38    1
    40    33    34   ar
    41    20    21   ar
    42    21    16   ar
    43    11     2   ar
    44    34    29   ar
    45     9     4   ar
    46    27    28    1
@<TRIPOS>MOLECULE
*****
 43 46 0 0 0
SMALL
GASTEIGER

@<TRIPOS>ATOM
      1 C         139.6211  140.5047  164.2970 C.3     1  UNL1        0.0823
      2 C         139.7571  140.5253  165.7907 C.ar    1  UNL1        0.0375
      3 C         140.7262  141.4665  166.4427 C.ar    1  UNL1        0.0023
      4 C         140.8621  141.4872  167.9363 C.ar    1  UNL1        0.0183
      5 C         141.8312  142.4283  168.5883 C.ar    1  UNL1        0.0118
      6 C         141.9671  142.4490  170.0820 C.ar    1  UNL1        0.0685
      7 C         141.1340  141.5284  170.9237 C.ar    1  UNL1        0.0118
      8 C         140.1649  140.5872  170.2718 C.ar    1  UNL1        0.0199
      9 C         140.0290  140.5666  168.7781 C.ar    1  UNL1        0.0844
     10 N         139.0599  139.6254  168.1262 N.ar    1  UNL1       -0.2119
     11 C         138.9240  139.6048  166.6324 C.ar    1  UNL1        0.2211
     12 C         142.9362  143.3901  170.7340 C.1     1  UNL1        0.1004
     13 N         143.9053  144.3313  171.3860 N.1     1  UNL1       -0.1908
     14 O         137.9549  138.6636  165.9805 O.3     1  UNL1       -0.4563
     15 C         138.3380  137.2314  165.7530 C.3     1  UNL1        0.2542
     16 C         142.6999  138.5213  162.7683 C.ar    1  UNL1        0.1577
     17 C         141.9940  137.5566  161.8622 C.ar    1  UNL1        0.1388
     18 N         140.4970  137.5747  161.7677 N.ar    1  UNL1       -0.2072
     19 C         139.7061  138.5574  162.5793 C.ar    1  UNL1        0.2213
     20 C         140.4121  139.5220  163.4854 C.ar    1  UNL1        0.0405
     21 C         141.9089  139.5040  163.5799 C.ar    1  UNL1        0.0393
     22 C         144.9004  139.4392  163.8004 C.3     1  UNL1        0.2525
     23 O         144.1968  138.5033  162.8629 O.3     1  UNL1       -0.4699
     24 O         138.2092  138.5754  162.4848 O.3     1  UNL1       -0.4563
     25 C         137.5433  139.0058  161.2115 C.3     1  UNL1        0.2542
     26 C         138.6943  141.4668  163.6149 C.3     1  UNL1        0.1163
     27 O         137.5366  140.8901  164.3746 O.3     1  UNL1       -0.3820
     28 H         137.8410  140.1376  164.9057 H       1  UNL1        0.2107
     29 C         139.8520  142.0436  162.8553 C.ar    1  UNL1        0.0117
     30 C         139.8452  142.0321  161.3554 C.ar    1  UNL1        0.0559
     31 C         141.0029  142.6089  160.5957 C.ar    1  UNL1        0.2272
     32 N         142.1674  143.1971  161.3360 N.ar    1  UNL1       -0.1767
     33 C         142.1741  143.2086  162.8359 C.ar    1  UNL1        0.2272
     34 C         141.0164  142.6319  163.5955 C.ar    1  UNL1        0.0559
     35 O         140.9962  142.5974  159.0957 O.3     1  UNL1       -0.4561
     36 C         139.8512  143.2116  158.3462 C.3     1  UNL1        0.2542
     37 O         143.3385  143.7969  163.5762 O.3     1  UNL1       -0.4561
     38 C         143.7299  143.2481  164.9163 C.3     1  UNL1        0.2542
     39 C         137.7674  142.4290  162.9329 C.3     1  UNL1        0.0491
     40 C         137.3655  143.6995  163.6217 C.3     1  UNL1        0.0750
     41 N         138.4039  144.7242  163.9706 N.3     1  UNL1       -0.2702
     42 C         139.0836  145.5033  162.8839 C.3     1  UNL1        0.0897
     43 C         138.7626  144.9698  165.4063 C.3     1  UNL1        0.0897
@<TRIPOS>BOND
     1    22    23    1
     2    23    16    1
     3    16    17   ar
     4    17    18   ar
     5    18    19   ar
     6    19    24    1
     7    24    25    1
     8    19    20   ar
     9     1    20    1
    10     1     2    1
    11     2     3   ar
    12     3     4   ar
    13     4     5   ar
    14     5     6   ar
    15     6    12    1
    16    12    13    3
    17     6     7   ar
    18     7     8   ar
    19     8     9   ar
    20     9    10   ar
    21    10    11   ar
    22    11    14    1
    23    14    15    1
    24     1    26    1
    25    26    27    1
    26    26    39    1
    27    39    40    1
    28    40    41    1
    29    41    42    1
    30    41    43    1
    31    26    29    1
    32    29    30   ar
    33    30    31   ar
    34    31    35    1
    35    35    36    1
    36    31    32   ar
    37    32    33   ar
    38    33    37    1
    39    37    38    1
    40    33    34   ar
    41    20    21   ar
    42    21    16   ar
    43    11     2   ar
    44    34    29   ar
    45     9     4   ar
    46    27    28    1
@<TRIPOS>MOLECULE
*****
 43 46 0 0 0
SMALL
GASTEIGER

@<TRIPOS>ATOM
      1 C         141.4254  140.6188  163.3533 C.3     1  UNL1        0.0823
      2 C         141.6410  140.4784  164.8311 C.ar    1  UNL1        0.0375
      3 C         140.8523  141.3228  165.7877 C.ar    1  UNL1        0.0023
      4 C         141.0678  141.1824  167.2654 C.ar    1  UNL1        0.0183
      5 C         140.2791  142.0267  168.2219 C.ar    1  UNL1        0.0118
      6 C         140.4947  141.8864  169.6998 C.ar    1  UNL1        0.0685
      7 C         141.4990  140.9017  170.2210 C.ar    1  UNL1        0.0118
      8 C         142.2878  140.0573  169.2644 C.ar    1  UNL1        0.0199
      9 C         142.0722  140.1977  167.7867 C.ar    1  UNL1        0.0844
     10 N         142.8609  139.3533  166.8301 N.ar    1  UNL1       -0.2119
     11 C         142.6453  139.4937  165.3523 C.ar    1  UNL1        0.2211
     12 C         139.7060  142.7307  170.6563 C.1     1  UNL1        0.1004
     13 N         138.9172  143.5750  171.6129 N.1     1  UNL1       -0.1908
     14 O         143.4341  138.6494  164.3958 O.3     1  UNL1       -0.4563
     15 C         144.8480  139.0197  164.0587 C.3     1  UNL1        0.2542
     16 C         143.9355  143.3969  162.0373 C.ar    1  UNL1        0.1577
     17 C         144.4951  142.7201  160.8212 C.ar    1  UNL1        0.1388
     18 N         144.0315  141.3429  160.4492 N.ar    1  UNL1       -0.2072
     19 C         143.0082  140.6425  161.2932 C.ar    1  UNL1        0.2213
     20 C         142.4486  141.3192  162.5093 C.ar    1  UNL1        0.0405
     21 C         142.9122  142.6964  162.8813 C.ar    1  UNL1        0.0393
     22 C         143.8575  145.4410  163.6389 C.3     1  UNL1        0.2525
     23 O         144.3990  144.7740  162.4093 O.3     1  UNL1       -0.4699
     24 O         142.5447  139.2653  160.9212 O.3     1  UNL1       -0.4563
     25 C         143.5471  138.1748  160.6847 C.3     1  UNL1        0.2542
     26 C         140.1865  140.0588  162.7196 C.3     1  UNL1        0.1163
     27 O         140.7077  138.6680  162.9298 O.3     1  UNL1       -0.3820
     28 H         141.6022  138.7108  163.3025 H       1  UNL1        0.2107
     29 C         139.6654  141.4495  162.5093 C.ar    1  UNL1        0.0117
     30 C         139.8575  142.1305  161.1868 C.ar    1  UNL1        0.0559
     31 C         139.3364  143.5213  160.9765 C.ar    1  UNL1        0.2272
     32 N         138.6230  144.2310  162.0889 N.ar    1  UNL1       -0.1767
     33 C         138.4309  143.5500  163.4115 C.ar    1  UNL1        0.2272
     34 C         138.9520  142.1592  163.6217 C.ar    1  UNL1        0.0559
     35 O         139.5286  144.2023  159.6539 O.3     1  UNL1       -0.4561
     36 C         140.7352  145.0625  159.4216 C.3     1  UNL1        0.2542
     37 O         137.7175  144.2597  164.5239 O.3     1  UNL1       -0.4561
     38 C         138.5036  144.9413  165.6044 C.3     1  UNL1        0.2542
     39 C         138.9477  139.4987  162.0859 C.3     1  UNL1        0.0491
     40 C         139.0605  138.5297  160.9464 C.3     1  UNL1        0.0750
     41 N         139.0591  139.0310  159.5326 N.3     1  UNL1       -0.2702
     42 C         138.0827  140.0896  159.1133 C.3     1  UNL1        0.0897
     43 C         140.0341  138.4736  158.5382 C.3     1  UNL1        0.0897
@<TRIPOS>BOND
     1    22    23    1
     2    23    16    1
     3    16    17   ar
     4    17    18   ar
     5    18    19   ar
     6    19    24    1
     7    24    25    1
     8    19    20   ar
     9     1    20    1
    10     1     2    1
    11     2     3   ar
    12     3     4   ar
    13     4     5   ar
    14     5     6   ar
    15     6    12    1
    16    12    13    3
    17     6     7   ar
    18     7     8   ar
    19     8     9   ar
    20     9    10   ar
    21    10    11   ar
    22    11    14    1
    23    14    15    1
    24     1    26    1
    25    26    27    1
    26    26    39    1
    27    39    40    1
    28    40    41    1
    29    41    42    1
    30    41    43    1
    31    26    29    1
    32    29    30   ar
    33    30    31   ar
    34    31    35    1
    35    35    36    1
    36    31    32   ar
    37    32    33   ar
    38    33    37    1
    39    37    38    1
    40    33    34   ar
    41    20    21   ar
    42    21    16   ar
    43    11     2   ar
    44    34    29   ar
    45     9     4   ar
    46    27    28    1
@<TRIPOS>MOLECULE
*****
 43 46 0 0 0
SMALL
GASTEIGER

@<TRIPOS>ATOM
      1 C         141.8669  140.9571  162.3488 C.3     1  UNL1        0.0823
      2 C         141.6385  140.7134  163.8112 C.ar    1  UNL1        0.0375
      3 C         141.3435  141.8647  164.7263 C.ar    1  UNL1        0.0023
      4 C         141.1150  141.6210  166.1886 C.ar    1  UNL1        0.0183
      5 C         140.8200  142.7723  167.1037 C.ar    1  UNL1        0.0118
      6 C         140.5916  142.5286  168.5661 C.ar    1  UNL1        0.0685
      7 C         140.6581  141.1336  169.1133 C.ar    1  UNL1        0.0118
      8 C         140.9531  139.9823  168.1982 C.ar    1  UNL1        0.0199
      9 C         141.1816  140.2259  166.7359 C.ar    1  UNL1        0.0844
     10 N         141.4765  139.0746  165.8207 N.ar    1  UNL1       -0.2119
     11 C         141.7050  139.3184  164.3584 C.ar    1  UNL1        0.2211
     12 C         140.2966  143.6799  169.4812 C.1     1  UNL1        0.1004
     13 N         140.0016  144.8312  170.3963 N.1     1  UNL1       -0.1908
     14 O         142.0000  138.1671  163.4433 O.3     1  UNL1       -0.4563
     15 C         140.9753  137.0913  163.2370 C.3     1  UNL1        0.2542
     16 C         141.1485  138.5766  159.2558 C.ar    1  UNL1        0.1577
     17 C         139.6501  138.5152  159.2874 C.ar    1  UNL1        0.1388
     18 N         138.8906  139.2678  160.3395 N.ar    1  UNL1       -0.2072
     19 C         139.6296  140.0818  161.3599 C.ar    1  UNL1        0.2213
     20 C         141.1280  140.1432  161.3284 C.ar    1  UNL1        0.0405
     21 C         141.8874  139.3906  160.2764 C.ar    1  UNL1        0.0393
     22 C         142.8152  138.5599  157.2630 C.3     1  UNL1        0.2525
     23 O         141.9079  137.8240  158.2038 O.3     1  UNL1       -0.4699
     24 O         138.8701  140.8344  162.4120 O.3     1  UNL1       -0.4563
     25 C         138.0330  140.0900  163.4095 C.3     1  UNL1        0.2542
     26 C         142.8344  142.0149  161.9070 C.3     1  UNL1        0.1163
     27 O         143.9576  141.2557  162.5488 O.3     1  UNL1       -0.3820
     28 H         143.6015  140.4809  163.0113 H       1  UNL1        0.2107
     29 C         141.7112  142.7741  161.2651 C.ar    1  UNL1        0.0117
     30 C         141.5863  142.8078  159.7707 C.ar    1  UNL1        0.0559
     31 C         140.4631  143.5670  159.1288 C.ar    1  UNL1        0.2272
     32 N         139.4647  144.2925  159.9813 N.ar    1  UNL1       -0.1767
     33 C         139.5896  144.2588  161.4757 C.ar    1  UNL1        0.2272
     34 C         140.7128  143.4996  162.1176 C.ar    1  UNL1        0.0559
     35 O         140.3383  143.6006  157.6343 O.3     1  UNL1       -0.4561
     36 C         139.9190  144.8651  156.9451 C.3     1  UNL1        0.2542
     37 O         138.5912  144.9844  162.3283 O.3     1  UNL1       -0.4561
     38 C         137.6468  144.2110  163.2000 C.3     1  UNL1        0.2542
     39 C         143.8018  143.0726  161.4651 C.3     1  UNL1        0.0491
     40 C         144.6512  143.7823  162.4776 C.3     1  UNL1        0.0750
     41 N         144.0745  144.1550  163.8112 N.3     1  UNL1       -0.2702
     42 C         144.5198  143.4339  165.0488 C.3     1  UNL1        0.0897
     43 C         143.0526  145.2489  163.9073 C.3     1  UNL1        0.0897
@<TRIPOS>BOND
     1    22    23    1
     2    23    16    1
     3    16    17   ar
     4    17    18   ar
     5    18    19   ar
     6    19    24    1
     7    24    25    1
     8    19    20   ar
     9     1    20    1
    10     1     2    1
    11     2     3   ar
    12     3     4   ar
    13     4     5   ar
    14     5     6   ar
    15     6    12    1
    16    12    13    3
    17     6     7   ar
    18     7     8   ar
    19     8     9   ar
    20     9    10   ar
    21    10    11   ar
    22    11    14    1
    23    14    15    1
    24     1    26    1
    25    26    27    1
    26    26    39    1
    27    39    40    1
    28    40    41    1
    29    41    42    1
    30    41    43    1
    31    26    29    1
    32    29    30   ar
    33    30    31   ar
    34    31    35    1
    35    35    36    1
    36    31    32   ar
    37    32    33   ar
    38    33    37    1
    39    37    38    1
    40    33    34   ar
    41    20    21   ar
    42    21    16   ar
    43    11     2   ar
    44    34    29   ar
    45     9     4   ar
    46    27    28    1
@<TRIPOS>MOLECULE
*****
 43 46 0 0 0
SMALL
GASTEIGER

@<TRIPOS>ATOM
      1 C         141.6654  140.6565  163.4507 C.3     1  UNL1        0.0823
      2 C         141.8463  140.5458  164.9357 C.ar    1  UNL1        0.0375
      3 C         141.0210  141.3943  165.8571 C.ar    1  UNL1        0.0023
      4 C         141.2017  141.2836  167.3420 C.ar    1  UNL1        0.0183
      5 C         140.3764  142.1321  168.2633 C.ar    1  UNL1        0.0118
      6 C         140.5573  142.0214  169.7483 C.ar    1  UNL1        0.0685
      7 C         141.5633  141.0622  170.3119 C.ar    1  UNL1        0.0118
      8 C         142.3886  140.2136  169.3905 C.ar    1  UNL1        0.0199
      9 C         142.2078  140.3243  167.9056 C.ar    1  UNL1        0.0844
     10 N         143.0331  139.4758  166.9843 N.ar    1  UNL1       -0.2119
     11 C         142.8523  139.5865  165.4993 C.ar    1  UNL1        0.2211
     12 C         139.7320  142.8699  170.6697 C.1     1  UNL1        0.1004
     13 N         138.9067  143.7185  171.5910 N.1     1  UNL1       -0.1908
     14 O         143.6776  138.7380  164.5779 O.3     1  UNL1       -0.4563
     15 C         145.0513  139.1858  164.1749 C.3     1  UNL1        0.2542
     16 C         143.9610  143.6421  162.1992 C.ar    1  UNL1        0.1577
     17 C         144.6052  143.0194  160.9962 C.ar    1  UNL1        0.1388
     18 N         144.2694  141.6089  160.6114 N.ar    1  UNL1       -0.2072
     19 C         143.2895  140.8214  161.4295 C.ar    1  UNL1        0.2213
     20 C         142.6453  141.4441  162.6326 C.ar    1  UNL1        0.0405
     21 C         142.9811  142.8545  163.0174 C.ar    1  UNL1        0.0393
     22 C         143.7674  145.6266  163.8647 C.3     1  UNL1        0.2525
     23 O         144.2968  145.0525  162.5840 O.3     1  UNL1       -0.4699
     24 O         142.9537  139.4110  161.0447 O.3     1  UNL1       -0.4563
     25 C         143.1205  138.9615  159.6234 C.3     1  UNL1        0.2542
     26 C         140.5047  139.9796  162.7840 C.3     1  UNL1        0.1163
     27 O         141.1108  138.6415  163.0873 O.3     1  UNL1       -0.3820
     28 H         141.9790  138.7662  163.5016 H       1  UNL1        0.2107
     29 C         139.8986  141.3178  162.4808 C.ar    1  UNL1        0.0117
     30 C         139.2410  142.1081  163.5729 C.ar    1  UNL1        0.0559
     31 C         138.6348  143.4463  163.2697 C.ar    1  UNL1        0.2272
     32 N         138.6863  143.9941  161.8742 N.ar    1  UNL1       -0.1767
     33 C         139.3439  143.2037  160.7821 C.ar    1  UNL1        0.2272
     34 C         139.9500  141.8656  161.0853 C.ar    1  UNL1        0.0559
     35 O         137.9772  144.2366  164.3619 O.3     1  UNL1       -0.4561
     36 C         138.8076  144.8377  165.4569 C.3     1  UNL1        0.2542
     37 O         139.3954  143.7515  159.3866 O.3     1  UNL1       -0.4561
     38 C         140.1941  144.9872  159.0949 C.3     1  UNL1        0.2542
     39 C         139.3440  139.3028  162.1173 C.3     1  UNL1        0.0491
     40 C         138.2699  138.6647  162.9476 C.3     1  UNL1        0.0750
     41 N         138.4732  138.4779  164.4220 N.3     1  UNL1       -0.2702
     42 C         138.0353  139.5453  165.3806 C.3     1  UNL1        0.0897
     43 C         139.1145  137.2238  164.9377 C.3     1  UNL1        0.0897
@<TRIPOS>BOND
     1    22    23    1
     2    23    16    1
     3    16    17   ar
     4    17    18   ar
     5    18    19   ar
     6    19    24    1
     7    24    25    1
     8    19    20   ar
     9     1    20    1
    10     1     2    1
    11     2     3   ar
    12     3     4   ar
    13     4     5   ar
    14     5     6   ar
    15     6    12    1
    16    12    13    3
    17     6     7   ar
    18     7     8   ar
    19     8     9   ar
    20     9    10   ar
    21    10    11   ar
    22    11    14    1
    23    14    15    1
    24     1    26    1
    25    26    27    1
    26    26    39    1
    27    39    40    1
    28    40    41    1
    29    41    42    1
    30    41    43    1
    31    26    29    1
    32    29    30   ar
    33    30    31   ar
    34    31    35    1
    35    35    36    1
    36    31    32   ar
    37    32    33   ar
    38    33    37    1
    39    37    38    1
    40    33    34   ar
    41    20    21   ar
    42    21    16   ar
    43    11     2   ar
    44    34    29   ar
    45     9     4   ar
    46    27    28    1
@<TRIPOS>MOLECULE
*****
 43 46 0 0 0
SMALL
GASTEIGER

@<TRIPOS>ATOM
      1 C         141.8545  140.9262  162.4395 C.3     1  UNL1        0.0823
      2 C         141.6426  140.6967  163.9067 C.ar    1  UNL1        0.0375
      3 C         141.3316  141.8534  164.8095 C.ar    1  UNL1        0.0023
      4 C         141.1197  141.6240  166.2766 C.ar    1  UNL1        0.0183
      5 C         140.8087  142.7807  167.1795 C.ar    1  UNL1        0.0118
      6 C         140.5968  142.5512  168.6466 C.ar    1  UNL1        0.0685
      7 C         140.6960  141.1649  169.2109 C.ar    1  UNL1        0.0118
      8 C         141.0070  140.0082  168.3080 C.ar    1  UNL1        0.0199
      9 C         141.2189  140.2376  166.8409 C.ar    1  UNL1        0.0844
     10 N         141.5299  139.0809  165.9381 N.ar    1  UNL1       -0.2119
     11 C         141.7418  139.3104  164.4709 C.ar    1  UNL1        0.2211
     12 C         140.2858  143.7080  169.5495 C.1     1  UNL1        0.1004
     13 N         139.9748  144.8647  170.4523 N.1     1  UNL1       -0.1908
     14 O         142.0528  138.1536  163.5681 O.3     1  UNL1       -0.4563
     15 C         141.0573  137.0443  163.4004 C.3     1  UNL1        0.2542
     16 C         141.1469  138.5614  159.3320 C.ar    1  UNL1        0.1577
     17 C         139.6581  138.4056  159.4275 C.ar    1  UNL1        0.1388
     18 N         138.9014  139.0902  160.5270 N.ar    1  UNL1       -0.2072
     19 C         139.6335  139.9303  161.5310 C.ar    1  UNL1        0.2213
     20 C         141.1224  140.0860  161.4355 C.ar    1  UNL1        0.0405
     21 C         141.8791  139.4016  160.3361 C.ar    1  UNL1        0.0393
     22 C         142.7083  138.6863  157.2593 C.3     1  UNL1        0.2525
     23 O         141.9036  137.8769  158.2325 O.3     1  UNL1       -0.4699
     24 O         138.8769  140.6148  162.6305 O.3     1  UNL1       -0.4563
     25 C         137.4800  141.1044  162.3875 C.3     1  UNL1        0.2542
     26 C         142.7986  141.9960  161.9764 C.3     1  UNL1        0.1163
     27 O         143.9420  141.2620  162.6120 O.3     1  UNL1       -0.3820
     28 H         143.6045  140.4858  163.0858 H       1  UNL1        0.2107
     29 C         141.6551  142.7299  161.3409 C.ar    1  UNL1        0.0117
     30 C         140.6250  143.4015  162.1997 C.ar    1  UNL1        0.0559
     31 C         139.4815  144.1354  161.5642 C.ar    1  UNL1        0.2272
     32 N         139.3683  144.1978  160.0698 N.ar    1  UNL1       -0.1767
     33 C         140.3985  143.5262  159.2109 C.ar    1  UNL1        0.2272
     34 C         141.5419  142.7922  159.8465 C.ar    1  UNL1        0.0559
     35 O         138.4513  144.8070  162.4231 O.3     1  UNL1       -0.4561
     36 C         138.3441  144.4573  163.8778 C.3     1  UNL1        0.2542
     37 O         140.2853  143.5885  157.7165 O.3     1  UNL1       -0.4561
     38 C         140.1237  144.9130  157.0312 C.3     1  UNL1        0.2542
     39 C         143.7426  143.0657  161.5133 C.3     1  UNL1        0.0491
     40 C         144.5902  143.8005  162.5092 C.3     1  UNL1        0.0750
     41 N         144.0099  144.2103  163.8303 N.3     1  UNL1       -0.2702
     42 C         144.4817  143.5525  165.0932 C.3     1  UNL1        0.0897
     43 C         142.9579  145.2780  163.8886 C.3     1  UNL1        0.0897
@<TRIPOS>BOND
     1    22    23    1
     2    23    16    1
     3    16    17   ar
     4    17    18   ar
     5    18    19   ar
     6    19    24    1
     7    24    25    1
     8    19    20   ar
     9     1    20    1
    10     1     2    1
    11     2     3   ar
    12     3     4   ar
    13     4     5   ar
    14     5     6   ar
    15     6    12    1
    16    12    13    3
    17     6     7   ar
    18     7     8   ar
    19     8     9   ar
    20     9    10   ar
    21    10    11   ar
    22    11    14    1
    23    14    15    1
    24     1    26    1
    25    26    27    1
    26    26    39    1
    27    39    40    1
    28    40    41    1
    29    41    42    1
    30    41    43    1
    31    26    29    1
    32    29    30   ar
    33    30    31   ar
    34    31    35    1
    35    35    36    1
    36    31    32   ar
    37    32    33   ar
    38    33    37    1
    39    37    38    1
    40    33    34   ar
    41    20    21   ar
    42    21    16   ar
    43    11     2   ar
    44    34    29   ar
    45     9     4   ar
    46    27    28    1
@<TRIPOS>MOLECULE
*****
 43 46 0 0 0
SMALL
GASTEIGER

@<TRIPOS>ATOM
      1 C         141.7586  141.0680  162.0858 C.3     1  UNL1        0.0823
      2 C         141.2989  140.7903  163.4864 C.ar    1  UNL1        0.0375
      3 C         141.2781  141.8943  164.5017 C.ar    1  UNL1        0.0023
      4 C         140.8185  141.6167  165.9022 C.ar    1  UNL1        0.0183
      5 C         140.7977  142.7207  166.9175 C.ar    1  UNL1        0.0118
      6 C         140.3381  142.4429  168.3181 C.ar    1  UNL1        0.0685
      7 C         139.8993  141.0613  168.7035 C.ar    1  UNL1        0.0118
      8 C         139.9201  139.9573  167.6882 C.ar    1  UNL1        0.0199
      9 C         140.3797  140.2350  166.2876 C.ar    1  UNL1        0.0844
     10 N         140.4005  139.1310  165.2724 N.ar    1  UNL1       -0.2119
     11 C         140.8602  139.4087  163.8717 C.ar    1  UNL1        0.2211
     12 C         140.3173  143.5469  169.3334 C.1     1  UNL1        0.1004
     13 N         140.2964  144.6509  170.3487 N.1     1  UNL1       -0.1908
     14 O         140.8810  138.3047  162.8565 O.3     1  UNL1       -0.4563
     15 C         139.6524  137.4761  162.6241 C.3     1  UNL1        0.2542
     16 C         139.0997  139.8482  159.4039 C.ar    1  UNL1        0.1577
     17 C         139.9129  138.8524  158.6311 C.ar    1  UNL1        0.1388
     18 N         141.3414  138.5952  159.0099 N.ar    1  UNL1       -0.2072
     19 C         141.9566  139.3338  160.1614 C.ar    1  UNL1        0.2213
     20 C         141.1434  140.3295  160.9342 C.ar    1  UNL1        0.0405
     21 C         139.7150  140.5867  160.5555 C.ar    1  UNL1        0.0393
     22 C         137.3522  140.8353  157.7543 C.3     1  UNL1        0.2525
     23 O         137.6713  140.1054  159.0252 O.3     1  UNL1       -0.4699
     24 O         143.3850  139.0766  160.5401 O.3     1  UNL1       -0.4563
     25 C         143.7569  137.8055  161.2445 C.3     1  UNL1        0.2542
     26 C         142.8334  142.0842  161.8368 C.3     1  UNL1        0.1163
     27 O         143.8339  141.1903  162.5075 O.3     1  UNL1       -0.3820
     28 H         143.3827  140.4075  162.8604 H       1  UNL1        0.2107
     29 C         141.8328  142.9781  161.1661 C.ar    1  UNL1        0.0117
     30 C         140.6874  143.5441  161.9519 C.ar    1  UNL1        0.0559
     31 C         139.6868  144.4380  161.2812 C.ar    1  UNL1        0.2272
     32 N         139.8317  144.7660  159.8247 N.ar    1  UNL1       -0.1767
     33 C         140.9772  144.2000  159.0389 C.ar    1  UNL1        0.2272
     34 C         141.9778  143.3061  159.7096 C.ar    1  UNL1        0.0559
     35 O         138.5413  145.0040  162.0671 O.3     1  UNL1       -0.4561
     36 C         137.8357  144.1543  163.0821 C.3     1  UNL1        0.2542
     37 O         141.1222  144.5280  157.5824 O.3     1  UNL1       -0.4561
     38 C         141.7829  145.8080  157.1640 C.3     1  UNL1        0.2542
     39 C         143.9082  143.1005  161.5878 C.3     1  UNL1        0.0491
     40 C         144.7559  143.5895  162.7246 C.3     1  UNL1        0.0750
     41 N         144.1086  144.0835  163.9844 N.3     1  UNL1       -0.2702
     42 C         144.4620  143.4617  165.3028 C.3     1  UNL1        0.0897
     43 C         143.1079  145.1994  163.9255 C.3     1  UNL1        0.0897
@<TRIPOS>BOND
     1    22    23    1
     2    23    16    1
     3    16    17   ar
     4    17    18   ar
     5    18    19   ar
     6    19    24    1
     7    24    25    1
     8    19    20   ar
     9     1    20    1
    10     1     2    1
    11     2     3   ar
    12     3     4   ar
    13     4     5   ar
    14     5     6   ar
    15     6    12    1
    16    12    13    3
    17     6     7   ar
    18     7     8   ar
    19     8     9   ar
    20     9    10   ar
    21    10    11   ar
    22    11    14    1
    23    14    15    1
    24     1    26    1
    25    26    27    1
    26    26    39    1
    27    39    40    1
    28    40    41    1
    29    41    42    1
    30    41    43    1
    31    26    29    1
    32    29    30   ar
    33    30    31   ar
    34    31    35    1
    35    35    36    1
    36    31    32   ar
    37    32    33   ar
    38    33    37    1
    39    37    38    1
    40    33    34   ar
    41    20    21   ar
    42    21    16   ar
    43    11     2   ar
    44    34    29   ar
    45     9     4   ar
    46    27    28    1
@<TRIPOS>MOLECULE
*****
 43 46 0 0 0
SMALL
GASTEIGER

@<TRIPOS>ATOM
      1 C         141.7166  141.1084  162.0444 C.3     1  UNL1        0.0823
      2 C         141.2621  140.8237  163.4453 C.ar    1  UNL1        0.0375
      3 C         141.2498  141.9213  164.4676 C.ar    1  UNL1        0.0023
      4 C         140.7954  141.6366  165.8684 C.ar    1  UNL1        0.0183
      5 C         140.7832  142.7343  166.8906 C.ar    1  UNL1        0.0118
      6 C         140.3287  142.4495  168.2915 C.ar    1  UNL1        0.0685
      7 C         139.8865  141.0671  168.6701 C.ar    1  UNL1        0.0118
      8 C         139.8988  139.9694  167.6479 C.ar    1  UNL1        0.0199
      9 C         140.3532  140.2541  166.2471 C.ar    1  UNL1        0.0844
     10 N         140.3654  139.1565  165.2248 N.ar    1  UNL1       -0.2119
     11 C         140.8199  139.4413  163.8239 C.ar    1  UNL1        0.2211
     12 C         140.3164  143.5472  169.3138 C.1     1  UNL1        0.1004
     13 N         140.3042  144.6448  170.3360 N.1     1  UNL1       -0.1908
     14 O         140.8322  138.3436  162.8017 O.3     1  UNL1       -0.4563
     15 C         139.5781  137.5725  162.5142 C.3     1  UNL1        0.2542
     16 C         139.0590  139.8518  159.3783 C.ar    1  UNL1        0.1577
     17 C         139.8866  138.8814  158.5888 C.ar    1  UNL1        0.1388
     18 N         141.3243  138.6534  158.9512 N.ar    1  UNL1       -0.2072
     19 C         141.9342  139.3957  160.1030 C.ar    1  UNL1        0.2213
     20 C         141.1066  140.3661  160.8926 C.ar    1  UNL1        0.0405
     21 C         139.6690  140.5942  160.5302 C.ar    1  UNL1        0.0393
     22 C         137.2728  140.7906  157.7419 C.3     1  UNL1        0.2525
     23 O         137.6214  140.0799  159.0160 O.3     1  UNL1       -0.4699
     24 O         143.3718  139.1676  160.4654 O.3     1  UNL1       -0.4563
     25 C         143.7784  137.9020  161.1602 C.3     1  UNL1        0.2542
     26 C         142.7810  142.1356  161.7955 C.3     1  UNL1        0.1163
     27 O         143.7917  141.2496  162.4615 O.3     1  UNL1       -0.3820
     28 H         143.3489  140.4616  162.8135 H       1  UNL1        0.2107
     29 C         141.7703  143.0216  161.1295 C.ar    1  UNL1        0.0117
     30 C         141.8739  143.3052  159.6603 C.ar    1  UNL1        0.0559
     31 C         140.8632  144.1912  158.9943 C.ar    1  UNL1        0.2272
     32 N         139.7488  144.7935  159.7976 N.ar    1  UNL1       -0.1767
     33 C         139.6452  144.5099  161.2668 C.ar    1  UNL1        0.2272
     34 C         140.6559  143.6239  161.9328 C.ar    1  UNL1        0.0559
     35 O         140.9670  144.4749  157.5250 O.3     1  UNL1       -0.4561
     36 C         142.3142  144.5609  156.8710 C.3     1  UNL1        0.2542
     37 O         138.5307  145.1122  162.0702 O.3     1  UNL1       -0.4561
     38 C         137.8730  144.3140  163.1566 C.3     1  UNL1        0.2542
     39 C         143.8454  143.1628  161.5466 C.3     1  UNL1        0.0491
     40 C         144.7130  143.6327  162.6764 C.3     1  UNL1        0.0750
     41 N         144.0880  144.1047  163.9557 N.3     1  UNL1       -0.2702
     42 C         144.4513  143.4484  165.2547 C.3     1  UNL1        0.0897
     43 C         143.0997  145.2329  163.9361 C.3     1  UNL1        0.0897
@<TRIPOS>BOND
     1    22    23    1
     2    23    16    1
     3    16    17   ar
     4    17    18   ar
     5    18    19   ar
     6    19    24    1
     7    24    25    1
     8    19    20   ar
     9     1    20    1
    10     1     2    1
    11     2     3   ar
    12     3     4   ar
    13     4     5   ar
    14     5     6   ar
    15     6    12    1
    16    12    13    3
    17     6     7   ar
    18     7     8   ar
    19     8     9   ar
    20     9    10   ar
    21    10    11   ar
    22    11    14    1
    23    14    15    1
    24     1    26    1
    25    26    27    1
    26    26    39    1
    27    39    40    1
    28    40    41    1
    29    41    42    1
    30    41    43    1
    31    26    29    1
    32    29    30   ar
    33    30    31   ar
    34    31    35    1
    35    35    36    1
    36    31    32   ar
    37    32    33   ar
    38    33    37    1
    39    37    38    1
    40    33    34   ar
    41    20    21   ar
    42    21    16   ar
    43    11     2   ar
    44    34    29   ar
    45     9     4   ar
    46    27    28    1
