@<TRIPOS>MOLECULE
*****
 34 37 0 0 0
SMALL
GASTEIGER

@<TRIPOS>ATOM
      1 C         139.0099  140.3434  169.0566 C.ar    1  UNL1        0.3086
      2 N         137.9393  139.2963  169.1427 N.ar    1  UNL1       -0.0923
      3 N         137.7876  138.6757  167.7856 N.ar    1  UNL1       -0.1058
      4 C         138.7644  139.3392  166.8607 C.ar    1  UNL1        0.2512
      5 O         139.5199  140.3699  167.6462 O.2     1  UNL1       -0.4048
      6 C         138.9528  139.0268  165.4057 C.ar    1  UNL1        0.0553
      7 C         138.2551  139.8516  164.3651 C.ar    1  UNL1        0.0060
      8 C         138.4434  139.5393  162.9101 C.ar    1  UNL1        0.0148
      9 C         139.3296  138.4021  162.4958 C.ar    1  UNL1        0.0505
     10 C         140.0273  137.5774  163.5364 C.ar    1  UNL1        0.0148
     11 C         139.8389  137.8897  164.9913 C.ar    1  UNL1        0.0060
     12 N         139.5180  138.0898  161.0407 N.am    1  UNL1       -0.2803
     13 C         140.5808  138.7971  160.2533 C.2     1  UNL1        0.2517
     14 O         141.4553  139.8167  160.9209 O.2     1  UNL1       -0.2697
     15 H         138.9440  137.4206  160.6026 H       1  UNL1        0.1552
     16 C         140.7692  138.4847  158.7983 C.ar    1  UNL1        0.0811
     17 C         139.6283  138.6584  157.8401 C.ar    1  UNL1        0.0068
     18 C         139.8167  138.3460  156.3852 C.ar    1  UNL1        0.0003
     19 C         141.1460  137.8601  155.8884 C.ar    1  UNL1        0.0023
     20 C         142.2869  137.6864  156.8466 C.ar    1  UNL1        0.0298
     21 C         142.0985  137.9988  158.3015 C.ar    1  UNL1        0.1445
     22 F         143.2394  137.8251  159.2598 F       1  UNL1       -0.2040
     23 N         139.4868  141.2115  170.1830 N.pl3   1  UNL1       -0.2871
     24 H         139.3123  140.9481  171.1154 H       1  UNL1        0.1512
     25 C         140.2297  142.4810  169.8888 C.3     1  UNL1        0.0925
     26 C         141.6626  142.6259  170.3079 C.3     1  UNL1        0.0386
     27 C         142.7576  142.5050  169.2898 C.3     1  UNL1        0.0738
     28 C         142.9297  142.7253  166.0385 C.3     1  UNL1        0.0173
     29 C         142.8422  141.4559  166.8328 C.3     1  UNL1        0.0575
     30 C         142.8185  140.0649  166.2720 C.3     1  UNL1        0.0173
     31 C         142.7248  139.1040  167.4199 C.3     1  UNL1        0.0173
     32 C         142.6905  139.9011  168.6901 C.3     1  UNL1        0.0575
     33 C         142.5997  139.3426  170.0793 C.3     1  UNL1        0.0173
     34 N         142.7631  141.3547  168.3272 N.3     1  UNL1       -0.2752
@<TRIPOS>BOND
     1    29    28    1
     2    29    30    1
     3    30    31    1
     4    31    32    1
     5    32    33    1
     6    32    34    1
     7    34    27    1
     8    27    26    1
     9    26    25    1
    10    25    23    1
    11    23     1    1
    12     1     2   ar
    13     2     3   ar
    14     3     4   ar
    15     4     6    1
    16     6     7   ar
    17     7     8   ar
    18     8     9   ar
    19     9    12    1
    20    12    13   am
    21    13    14    2
    22    13    16    1
    23    16    17   ar
    24    17    18   ar
    25    18    19   ar
    26    19    20   ar
    27    20    21   ar
    28    21    22    1
    29     9    10   ar
    30    10    11   ar
    31     4     5   ar
    32    34    29    1
    33     5     1   ar
    34    11     6   ar
    35    21    16   ar
    36    23    24    1
    37    12    15    1
@<TRIPOS>MOLECULE
*****
 34 37 0 0 0
SMALL
GASTEIGER

@<TRIPOS>ATOM
      1 C         139.5312  140.8060  168.9673 C.ar    1  UNL1        0.3086
      2 N         138.6933  139.5828  169.1953 N.ar    1  UNL1       -0.0923
      3 N         138.2518  139.0674  167.8576 N.ar    1  UNL1       -0.1058
      4 C         138.8167  139.9720  166.8029 C.ar    1  UNL1        0.2512
      5 O         139.6074  141.0465  167.4887 O.2     1  UNL1       -0.4048
      6 C         138.6246  139.8276  165.3222 C.ar    1  UNL1        0.0553
      7 C         138.9896  138.5423  164.6405 C.ar    1  UNL1        0.0060
      8 C         138.7976  138.3979  163.1599 C.ar    1  UNL1        0.0148
      9 C         138.2405  139.5388  162.3610 C.ar    1  UNL1        0.0505
     10 C         137.8755  140.8240  163.0428 C.ar    1  UNL1        0.0148
     11 C         138.0676  140.9684  164.5234 C.ar    1  UNL1        0.0060
     12 N         138.0485  139.3943  160.8803 N.am    1  UNL1       -0.2803
     13 C         139.0088  140.0490  159.9321 C.2     1  UNL1        0.2517
     14 O         140.1611  140.8481  160.4645 O.2     1  UNL1       -0.2697
     15 H         137.2921  138.8698  160.5309 H       1  UNL1        0.1552
     16 C         138.8167  139.9045  158.4514 C.ar    1  UNL1        0.0811
     17 C         137.8287  140.7763  157.7347 C.ar    1  UNL1        0.0068
     18 C         137.6367  140.6318  156.2541 C.ar    1  UNL1        0.0003
     19 C         138.4327  139.6155  155.4902 C.ar    1  UNL1        0.0023
     20 C         139.4207  138.7437  156.2070 C.ar    1  UNL1        0.0298
     21 C         139.6127  138.8882  157.6875 C.ar    1  UNL1        0.1445
     22 F         140.6008  138.0164  158.4043 F       1  UNL1       -0.2040
     23 N         140.1790  141.6418  170.0311 N.pl3   1  UNL1       -0.2871
     24 H         140.1307  141.3626  170.9740 H       1  UNL1        0.1512
     25 C         140.9004  142.9030  169.6584 C.3     1  UNL1        0.0925
     26 C         142.3488  143.0706  170.0104 C.3     1  UNL1        0.0386
     27 C         143.3372  142.0021  169.6479 C.3     1  UNL1        0.0738
     28 C         142.5532  138.8420  169.8677 C.3     1  UNL1        0.0173
     29 C         142.6973  139.6284  168.5985 C.3     1  UNL1        0.0575
     30 C         142.5064  139.1003  167.2077 C.3     1  UNL1        0.0173
     31 C         142.7488  140.2265  166.2470 C.3     1  UNL1        0.0173
     32 C         143.0895  141.4506  167.0442 C.3     1  UNL1        0.0575
     33 C         143.4064  142.8063  166.4860 C.3     1  UNL1        0.0173
     34 N         143.0577  141.0809  168.4975 N.3     1  UNL1       -0.2752
@<TRIPOS>BOND
     1    29    28    1
     2    29    30    1
     3    30    31    1
     4    31    32    1
     5    32    33    1
     6    32    34    1
     7    34    27    1
     8    27    26    1
     9    26    25    1
    10    25    23    1
    11    23     1    1
    12     1     2   ar
    13     2     3   ar
    14     3     4   ar
    15     4     6    1
    16     6     7   ar
    17     7     8   ar
    18     8     9   ar
    19     9    12    1
    20    12    13   am
    21    13    14    2
    22    13    16    1
    23    16    17   ar
    24    17    18   ar
    25    18    19   ar
    26    19    20   ar
    27    20    21   ar
    28    21    22    1
    29     9    10   ar
    30    10    11   ar
    31     4     5   ar
    32    34    29    1
    33     5     1   ar
    34    11     6   ar
    35    21    16   ar
    36    23    24    1
    37    12    15    1
@<TRIPOS>MOLECULE
*****
 34 37 0 0 0
SMALL
GASTEIGER

@<TRIPOS>ATOM
      1 C         142.6938  137.9504  157.2631 C.ar    1  UNL1        0.3086
      2 N         143.7191  139.0294  157.0775 N.ar    1  UNL1       -0.0923
      3 N         144.0900  139.5545  158.4327 N.ar    1  UNL1       -0.1058
      4 C         143.2939  138.8001  159.4560 C.ar    1  UNL1        0.2512
      5 O         142.4310  137.8086  158.7331 O.2     1  UNL1       -0.4048
      6 C         143.3508  139.0016  160.9413 C.ar    1  UNL1        0.0553
      7 C         142.5945  138.0809  161.8526 C.ar    1  UNL1        0.0060
      8 C         142.6514  138.2825  163.3379 C.ar    1  UNL1        0.0148
      9 C         143.4645  139.4047  163.9119 C.ar    1  UNL1        0.0505
     10 C         144.2208  140.3253  163.0006 C.ar    1  UNL1        0.0148
     11 C         144.1639  140.1238  161.5154 C.ar    1  UNL1        0.0060
     12 N         143.5213  139.6062  165.3973 N.am    1  UNL1       -0.2803
     13 C         142.4615  140.4142  166.0856 C.2     1  UNL1        0.2517
     14 O         141.3449  141.0208  165.2886 O.2     1  UNL1       -0.2697
     15 H         144.2542  139.2081  165.9203 H       1  UNL1        0.1552
     16 C         142.5184  140.6157  167.5710 C.ar    1  UNL1        0.0811
     17 C         141.8968  139.6056  168.4892 C.ar    1  UNL1        0.0068
     18 C         141.9537  139.8071  169.9745 C.ar    1  UNL1        0.0003
     19 C         142.6321  141.0188  170.5415 C.ar    1  UNL1        0.0023
     20 C         143.2536  142.0290  169.6233 C.ar    1  UNL1        0.0298
     21 C         143.1967  141.8275  168.1380 C.ar    1  UNL1        0.1445
     22 F         143.8183  142.8377  167.2197 F       1  UNL1       -0.2040
     23 N         142.0451  137.1531  156.1706 N.pl3   1  UNL1       -0.2871
     24 H         141.0718  137.2074  156.0330 H       1  UNL1        0.1512
     25 C         142.8795  136.2731  155.2877 C.3     1  UNL1        0.0925
     26 C         143.8418  135.2966  155.8962 C.3     1  UNL1        0.0386
     27 C         143.3890  134.3847  156.9978 C.3     1  UNL1        0.0738
     28 C         141.1868  132.6799  155.2969 C.3     1  UNL1        0.0173
     29 C         142.3803  132.1155  156.0089 C.3     1  UNL1        0.0575
     30 C         142.7710  130.6684  156.0641 C.3     1  UNL1        0.0173
     31 C         144.0248  130.5576  156.8800 C.3     1  UNL1        0.0173
     32 C         144.4089  131.9363  157.3291 C.3     1  UNL1        0.0575
     33 C         145.6003  132.2900  158.1691 C.3     1  UNL1        0.0173
     34 N         143.3925  132.8991  156.7907 N.3     1  UNL1       -0.2752
@<TRIPOS>BOND
     1    29    28    1
     2    29    30    1
     3    30    31    1
     4    31    32    1
     5    32    33    1
     6    32    34    1
     7    34    27    1
     8    27    26    1
     9    26    25    1
    10    25    23    1
    11    23     1    1
    12     1     2   ar
    13     2     3   ar
    14     3     4   ar
    15     4     6    1
    16     6     7   ar
    17     7     8   ar
    18     8     9   ar
    19     9    12    1
    20    12    13   am
    21    13    14    2
    22    13    16    1
    23    16    17   ar
    24    17    18   ar
    25    18    19   ar
    26    19    20   ar
    27    20    21   ar
    28    21    22    1
    29     9    10   ar
    30    10    11   ar
    31     4     5   ar
    32    34    29    1
    33     5     1   ar
    34    11     6   ar
    35    21    16   ar
    36    23    24    1
    37    12    15    1
@<TRIPOS>MOLECULE
*****
 34 37 0 0 0
SMALL
GASTEIGER

@<TRIPOS>ATOM
      1 C         142.8698  137.5206  156.8090 C.ar    1  UNL1        0.3086
      2 N         143.7056  138.7621  156.9106 N.ar    1  UNL1       -0.0923
      3 N         143.7308  139.1876  158.3487 N.ar    1  UNL1       -0.1058
      4 C         142.9105  138.2092  159.1360 C.ar    1  UNL1        0.2512
      5 O         142.3784  137.1789  158.1844 O.2     1  UNL1       -0.4048
      6 C         142.6654  138.2532  160.6152 C.ar    1  UNL1        0.0553
      7 C         141.2846  138.0228  161.1538 C.ar    1  UNL1        0.0060
      8 C         141.0395  138.0669  162.6330 C.ar    1  UNL1        0.0148
      9 C         142.1753  138.3413  163.5736 C.ar    1  UNL1        0.0505
     10 C         143.5561  138.5717  163.0350 C.ar    1  UNL1        0.0148
     11 C         143.8012  138.5277  161.5558 C.ar    1  UNL1        0.0060
     12 N         141.9301  138.3854  165.0528 N.am    1  UNL1       -0.2803
     13 C         141.7849  139.7055  165.7500 C.2     1  UNL1        0.2517
     14 O         141.8848  140.9816  164.9680 O.2     1  UNL1       -0.2697
     15 H         141.8646  137.5478  165.5660 H       1  UNL1        0.1552
     16 C         141.5398  139.7495  167.2292 C.ar    1  UNL1        0.0811
     17 C         142.6497  139.4217  168.1834 C.ar    1  UNL1        0.0068
     18 C         142.4045  139.4657  169.6626 C.ar    1  UNL1        0.0003
     19 C         141.0495  139.8376  170.1875 C.ar    1  UNL1        0.0023
     20 C         139.9396  140.1655  169.2333 C.ar    1  UNL1        0.0298
     21 C         140.1848  140.1214  167.7541 C.ar    1  UNL1        0.1445
     22 F         139.0748  140.4493  166.7998 F       1  UNL1       -0.2040
     23 N         142.5768  136.7553  155.5527 N.pl3   1  UNL1       -0.2871
     24 H         143.0496  136.9788  154.7186 H       1  UNL1        0.1512
     25 C         141.5635  135.6494  155.5672 C.3     1  UNL1        0.0925
     26 C         142.0112  134.2235  155.6948 C.3     1  UNL1        0.0386
     27 C         143.4713  133.8867  155.6246 C.3     1  UNL1        0.0738
     28 C         142.7781  131.8459  153.1743 C.3     1  UNL1        0.0173
     29 C         143.5879  131.5170  154.3934 C.3     1  UNL1        0.0575
     30 C         144.2212  130.1924  154.7001 C.3     1  UNL1        0.0173
     31 C         144.9313  130.3118  156.0159 C.3     1  UNL1        0.0173
     32 C         144.7368  131.7102  156.5225 C.3     1  UNL1        0.0575
     33 C         145.2776  132.2661  157.8064 C.3     1  UNL1        0.0173
     34 N         143.9065  132.4551  155.5196 N.3     1  UNL1       -0.2752
@<TRIPOS>BOND
     1    29    28    1
     2    29    30    1
     3    30    31    1
     4    31    32    1
     5    32    33    1
     6    32    34    1
     7    34    27    1
     8    27    26    1
     9    26    25    1
    10    25    23    1
    11    23     1    1
    12     1     2   ar
    13     2     3   ar
    14     3     4   ar
    15     4     6    1
    16     6     7   ar
    17     7     8   ar
    18     8     9   ar
    19     9    12    1
    20    12    13   am
    21    13    14    2
    22    13    16    1
    23    16    17   ar
    24    17    18   ar
    25    18    19   ar
    26    19    20   ar
    27    20    21   ar
    28    21    22    1
    29     9    10   ar
    30    10    11   ar
    31     4     5   ar
    32    34    29    1
    33     5     1   ar
    34    11     6   ar
    35    21    16   ar
    36    23    24    1
    37    12    15    1
@<TRIPOS>MOLECULE
*****
 34 37 0 0 0
SMALL
GASTEIGER

@<TRIPOS>ATOM
      1 C         141.8208  142.0578  166.0097 C.ar    1  UNL1        0.3086
      2 N         140.6412  142.8387  166.5087 N.ar    1  UNL1       -0.0923
      3 N         140.0341  143.5583  165.3409 N.ar    1  UNL1       -0.1058
      4 C         140.8384  143.2221  164.1202 C.ar    1  UNL1        0.2512
      5 O         141.9426  142.2947  164.5336 O.2     1  UNL1       -0.4048
      6 C         140.5833  143.7249  162.7302 C.ar    1  UNL1        0.0553
      7 C         140.6085  142.7724  161.5717 C.ar    1  UNL1        0.0060
      8 C         140.3534  143.2753  160.1817 C.ar    1  UNL1        0.0148
      9 C         140.0732  144.7306  159.9502 C.ar    1  UNL1        0.0505
     10 C         140.0480  145.6831  161.1087 C.ar    1  UNL1        0.0148
     11 C         140.3031  145.1802  162.4987 C.ar    1  UNL1        0.0060
     12 N         139.8181  145.2334  158.5602 N.am    1  UNL1       -0.2803
     13 C         140.9507  145.7734  157.7383 C.2     1  UNL1        0.2517
     14 O         142.3385  145.8105  158.3064 O.2     1  UNL1       -0.2697
     15 H         138.9072  145.2091  158.1873 H       1  UNL1        0.1552
     16 C         140.6956  146.2762  156.3483 C.ar    1  UNL1        0.0811
     17 C         141.4612  145.7050  155.1918 C.ar    1  UNL1        0.0068
     18 C         141.2061  146.2078  153.8018 C.ar    1  UNL1        0.0003
     19 C         140.1854  147.2819  153.5683 C.ar    1  UNL1        0.0023
     20 C         139.4198  147.8531  154.7248 C.ar    1  UNL1        0.0298
     21 C         139.6749  147.3503  156.1148 C.ar    1  UNL1        0.1445
     22 F         138.9093  147.9215  157.2714 F       1  UNL1       -0.2040
     23 N         142.7204  141.1920  166.8409 N.pl3   1  UNL1       -0.2871
     24 H         143.6086  141.5206  167.1101 H       1  UNL1        0.1512
     25 C         142.2669  139.8257  167.2621 C.3     1  UNL1        0.0925
     26 C         142.6995  139.2664  168.5850 C.3     1  UNL1        0.0386
     27 C         142.0256  139.7181  169.8467 C.3     1  UNL1        0.0738
     28 C         138.8884  140.5989  170.0245 C.3     1  UNL1        0.0173
     29 C         140.0670  141.5266  170.0417 C.3     1  UNL1        0.0575
     30 C         140.0104  143.0220  170.1436 C.3     1  UNL1        0.0173
     31 C         141.4175  143.5414  170.1249 C.3     1  UNL1        0.0173
     32 C         142.3436  142.3669  170.0114 C.3     1  UNL1        0.0575
     33 C         143.8415  142.4272  169.9586 C.3     1  UNL1        0.0173
     34 N         141.5090  141.1217  169.9600 N.3     1  UNL1       -0.2752
@<TRIPOS>BOND
     1    29    28    1
     2    29    30    1
     3    30    31    1
     4    31    32    1
     5    32    33    1
     6    32    34    1
     7    34    27    1
     8    27    26    1
     9    26    25    1
    10    25    23    1
    11    23     1    1
    12     1     2   ar
    13     2     3   ar
    14     3     4   ar
    15     4     6    1
    16     6     7   ar
    17     7     8   ar
    18     8     9   ar
    19     9    12    1
    20    12    13   am
    21    13    14    2
    22    13    16    1
    23    16    17   ar
    24    17    18   ar
    25    18    19   ar
    26    19    20   ar
    27    20    21   ar
    28    21    22    1
    29     9    10   ar
    30    10    11   ar
    31     4     5   ar
    32    34    29    1
    33     5     1   ar
    34    11     6   ar
    35    21    16   ar
    36    23    24    1
    37    12    15    1
@<TRIPOS>MOLECULE
*****
 34 37 0 0 0
SMALL
GASTEIGER

@<TRIPOS>ATOM
      1 C         139.2312  139.6347  167.9161 C.ar    1  UNL1        0.3086
      2 N         137.9781  138.8127  167.9817 N.ar    1  UNL1       -0.0923
      3 N         137.4689  138.6312  166.5825 N.ar    1  UNL1       -0.1058
      4 C         138.4073  139.3410  165.6521 C.ar    1  UNL1        0.2512
      5 O         139.4964  139.9612  166.4763 O.2     1  UNL1       -0.4048
      6 C         138.2791  139.4173  164.1595 C.ar    1  UNL1        0.0553
      7 C         137.8175  140.6883  163.5103 C.ar    1  UNL1        0.0060
      8 C         137.6893  140.7645  162.0178 C.ar    1  UNL1        0.0148
      9 C         138.0227  139.5697  161.1744 C.ar    1  UNL1        0.0505
     10 C         138.4842  138.2986  161.8236 C.ar    1  UNL1        0.0148
     11 C         138.6124  138.2224  163.3161 C.ar    1  UNL1        0.0060
     12 N         137.8945  139.6459  159.6818 N.am    1  UNL1       -0.2803
     13 C         139.0817  140.0210  158.8452 C.2     1  UNL1        0.2517
     14 O         140.3971  140.3198  159.5012 O.2     1  UNL1       -0.2697
     15 H         137.0311  139.4498  159.2512 H       1  UNL1        0.1552
     16 C         138.9535  140.0973  157.3526 C.ar    1  UNL1        0.0811
     17 C         139.7221  139.1459  156.4843 C.ar    1  UNL1        0.0068
     18 C         139.5939  139.2222  154.9917 C.ar    1  UNL1        0.0003
     19 C         138.6970  140.2498  154.3676 C.ar    1  UNL1        0.0023
     20 C         137.9283  141.2012  155.2359 C.ar    1  UNL1        0.0298
     21 C         138.0566  141.1249  156.7285 C.ar    1  UNL1        0.1445
     22 F         137.2879  142.0762  157.5969 F       1  UNL1       -0.2040
     23 N         140.0714  140.0561  169.0850 N.pl3   1  UNL1       -0.2871
     24 H         140.9735  139.6801  169.2038 H       1  UNL1        0.1512
     25 C         139.5373  141.0505  170.0729 C.3     1  UNL1        0.0925
     26 C         140.1985  142.3885  170.2224 C.3     1  UNL1        0.0386
     27 C         140.4013  143.2634  169.0209 C.3     1  UNL1        0.0738
     28 C         139.6608  143.3009  165.8430 C.3     1  UNL1        0.0173
     29 C         140.9509  142.8247  166.4421 C.3     1  UNL1        0.0575
     30 C         142.1271  142.2823  165.6857 C.3     1  UNL1        0.0173
     31 C         143.1944  141.9298  166.6789 C.3     1  UNL1        0.0173
     32 C         142.6778  142.2544  168.0492 C.3     1  UNL1        0.0575
     33 C         143.4179  142.0600  169.3394 C.3     1  UNL1        0.0173
     34 N         141.2912  142.8075  167.9028 N.3     1  UNL1       -0.2752
@<TRIPOS>BOND
     1    29    28    1
     2    29    30    1
     3    30    31    1
     4    31    32    1
     5    32    33    1
     6    32    34    1
     7    34    27    1
     8    27    26    1
     9    26    25    1
    10    25    23    1
    11    23     1    1
    12     1     2   ar
    13     2     3   ar
    14     3     4   ar
    15     4     6    1
    16     6     7   ar
    17     7     8   ar
    18     8     9   ar
    19     9    12    1
    20    12    13   am
    21    13    14    2
    22    13    16    1
    23    16    17   ar
    24    17    18   ar
    25    18    19   ar
    26    19    20   ar
    27    20    21   ar
    28    21    22    1
    29     9    10   ar
    30    10    11   ar
    31     4     5   ar
    32    34    29    1
    33     5     1   ar
    34    11     6   ar
    35    21    16   ar
    36    23    24    1
    37    12    15    1
@<TRIPOS>MOLECULE
*****
 34 37 0 0 0
SMALL
GASTEIGER

@<TRIPOS>ATOM
      1 C         143.8359  143.5005  162.0496 C.ar    1  UNL1        0.3086
      2 N         144.9484  142.6670  162.6134 N.ar    1  UNL1       -0.0923
      3 N         144.9447  141.3465  161.9020 N.ar    1  UNL1       -0.1058
      4 C         143.8300  141.3637  160.8985 C.ar    1  UNL1        0.2512
      5 O         143.1447  142.6950  160.9897 O.2     1  UNL1       -0.4048
      6 C         143.4646  140.2460  159.9672 C.ar    1  UNL1        0.0553
      7 C         143.2265  140.5285  158.5135 C.ar    1  UNL1        0.0060
      8 C         142.8612  139.4107  157.5823 C.ar    1  UNL1        0.0148
      9 C         142.7338  138.0105  158.1049 C.ar    1  UNL1        0.0505
     10 C         142.9719  137.7280  159.5587 C.ar    1  UNL1        0.0148
     11 C         143.3372  138.8457  160.4898 C.ar    1  UNL1        0.0060
     12 N         142.3684  136.8927  157.1736 N.am    1  UNL1       -0.2803
     13 C         143.2933  136.5165  156.0543 C.2     1  UNL1        0.2517
     14 O         144.5836  137.2579  155.8661 O.2     1  UNL1       -0.2697
     15 H         141.5216  136.4061  157.2971 H       1  UNL1        0.1552
     16 C         142.9279  135.3987  155.1230 C.ar    1  UNL1        0.0811
     17 C         142.2106  135.6959  153.8396 C.ar    1  UNL1        0.0068
     18 C         141.8453  134.5782  152.9085 C.ar    1  UNL1        0.0003
     19 C         142.1972  133.1632  153.2607 C.ar    1  UNL1        0.0023
     20 C         142.9144  132.8660  154.5441 C.ar    1  UNL1        0.0298
     21 C         143.2798  133.9837  155.4752 C.ar    1  UNL1        0.1445
     22 F         143.9971  133.6865  156.7587 F       1  UNL1       -0.2040
     23 N         143.4776  144.8946  162.4715 N.pl3   1  UNL1       -0.2871
     24 H         143.8352  145.6662  161.9755 H       1  UNL1        0.1512
     25 C         142.5746  145.1130  163.6491 C.3     1  UNL1        0.0925
     26 C         141.2302  144.4496  163.6966 C.3     1  UNL1        0.0386
     27 C         140.9612  143.3710  164.7037 C.3     1  UNL1        0.0738
     28 C         140.3989  140.8810  162.6707 C.3     1  UNL1        0.0173
     29 C         141.4737  140.9408  163.7154 C.3     1  UNL1        0.0575
     30 C         142.4786  139.8667  164.0090 C.3     1  UNL1        0.0173
     31 C         143.3582  140.3474  165.1249 C.3     1  UNL1        0.0173
     32 C         142.8968  141.7186  165.5210 C.3     1  UNL1        0.0575
     33 C         143.4951  142.5730  166.5990 C.3     1  UNL1        0.0173
     34 N         141.7321  142.0854  164.6498 N.3     1  UNL1       -0.2752
@<TRIPOS>BOND
     1    29    28    1
     2    29    30    1
     3    30    31    1
     4    31    32    1
     5    32    33    1
     6    32    34    1
     7    34    27    1
     8    27    26    1
     9    26    25    1
    10    25    23    1
    11    23     1    1
    12     1     2   ar
    13     2     3   ar
    14     3     4   ar
    15     4     6    1
    16     6     7   ar
    17     7     8   ar
    18     8     9   ar
    19     9    12    1
    20    12    13   am
    21    13    14    2
    22    13    16    1
    23    16    17   ar
    24    17    18   ar
    25    18    19   ar
    26    19    20   ar
    27    20    21   ar
    28    21    22    1
    29     9    10   ar
    30    10    11   ar
    31     4     5   ar
    32    34    29    1
    33     5     1   ar
    34    11     6   ar
    35    21    16   ar
    36    23    24    1
    37    12    15    1
@<TRIPOS>MOLECULE
*****
 34 37 0 0 0
SMALL
GASTEIGER

@<TRIPOS>ATOM
      1 C         139.7739  137.7151  156.9734 C.ar    1  UNL1        0.3086
      2 N         138.8195  138.8034  156.5798 N.ar    1  UNL1       -0.0923
      3 N         138.5561  139.6491  157.7903 N.ar    1  UNL1       -0.1058
      4 C         139.3476  139.0835  158.9321 C.ar    1  UNL1        0.2512
      5 O         140.1002  137.8882  158.4272 O.2     1  UNL1       -0.4048
      6 C         139.3806  139.6192  160.3328 C.ar    1  UNL1        0.0553
      7 C         138.2538  139.3206  161.2767 C.ar    1  UNL1        0.0060
      8 C         138.2869  139.8563  162.6774 C.ar    1  UNL1        0.0148
      9 C         139.4469  140.6904  163.1342 C.ar    1  UNL1        0.0505
     10 C         140.5737  140.9890  162.1903 C.ar    1  UNL1        0.0148
     11 C         140.5406  140.4533  160.7896 C.ar    1  UNL1        0.0060
     12 N         139.4799  141.2261  164.5350 N.am    1  UNL1       -0.2803
     13 C         139.9074  140.3397  165.6670 C.2     1  UNL1        0.2517
     14 O         140.3018  138.9176  165.3983 O.2     1  UNL1       -0.2697
     15 H         139.2211  142.1594  164.7113 H       1  UNL1        0.1552
     16 C         139.9405  140.8753  167.0677 C.ar    1  UNL1        0.0811
     17 C         139.4256  140.0403  168.2024 C.ar    1  UNL1        0.0068
     18 C         139.4587  140.5759  169.6030 C.ar    1  UNL1        0.0003
     19 C         140.0066  141.9467  169.8691 C.ar    1  UNL1        0.0023
     20 C         140.5215  142.7817  168.7344 C.ar    1  UNL1        0.0298
     21 C         140.4885  142.2461  167.3338 C.ar    1  UNL1        0.1445
     22 F         141.0034  143.0812  166.1990 F       1  UNL1       -0.2040
     23 N         140.3081  136.6421  156.0716 N.pl3   1  UNL1       -0.2871
     24 H         140.4559  135.7337  156.4212 H       1  UNL1        0.1512
     25 C         140.6172  136.9531  154.6371 C.3     1  UNL1        0.0925
     26 C         140.7646  135.8394  153.6431 C.3     1  UNL1        0.0386
     27 C         142.0054  134.9965  153.6398 C.3     1  UNL1        0.0738
     28 C         144.2594  136.3782  155.5527 C.3     1  UNL1        0.0173
     29 C         143.5702  135.0701  155.8056 C.3     1  UNL1        0.0575
     30 C         143.7961  134.1675  156.9821 C.3     1  UNL1        0.0173
     31 C         142.8996  132.9746  156.8299 C.3     1  UNL1        0.0173
     32 C         142.1197  133.1399  155.5594 C.3     1  UNL1        0.0575
     33 C         141.1036  132.1789  155.0171 C.3     1  UNL1        0.0173
     34 N         142.5341  134.4351  154.9263 N.3     1  UNL1       -0.2752
@<TRIPOS>BOND
     1    29    28    1
     2    29    30    1
     3    30    31    1
     4    31    32    1
     5    32    33    1
     6    32    34    1
     7    34    27    1
     8    27    26    1
     9    26    25    1
    10    25    23    1
    11    23     1    1
    12     1     2   ar
    13     2     3   ar
    14     3     4   ar
    15     4     6    1
    16     6     7   ar
    17     7     8   ar
    18     8     9   ar
    19     9    12    1
    20    12    13   am
    21    13    14    2
    22    13    16    1
    23    16    17   ar
    24    17    18   ar
    25    18    19   ar
    26    19    20   ar
    27    20    21   ar
    28    21    22    1
    29     9    10   ar
    30    10    11   ar
    31     4     5   ar
    32    34    29    1
    33     5     1   ar
    34    11     6   ar
    35    21    16   ar
    36    23    24    1
    37    12    15    1
@<TRIPOS>MOLECULE
*****
 34 37 0 0 0
SMALL
GASTEIGER

@<TRIPOS>ATOM
      1 C         140.1602  144.9914  157.7096 C.ar    1  UNL1        0.3086
      2 N         141.4371  145.6861  158.0799 N.ar    1  UNL1       -0.0923
      3 N         141.6568  145.4988  159.5518 N.ar    1  UNL1       -0.1058
      4 C         140.5158  144.6883  160.0913 C.ar    1  UNL1        0.2512
      5 O         139.5908  144.3747  158.9528 O.2     1  UNL1       -0.4048
      6 C         140.3319  144.2655  161.5187 C.ar    1  UNL1        0.0553
      7 C         140.4092  145.2830  162.6182 C.ar    1  UNL1        0.0060
      8 C         140.2253  144.8602  164.0455 C.ar    1  UNL1        0.0148
      9 C         139.9641  143.4200  164.3735 C.ar    1  UNL1        0.0505
     10 C         139.8868  142.4025  163.2740 C.ar    1  UNL1        0.0148
     11 C         140.0707  142.8253  161.8467 C.ar    1  UNL1        0.0060
     12 N         139.7802  142.9972  165.8009 N.am    1  UNL1       -0.2803
     13 C         140.9525  142.4977  166.5921 C.2     1  UNL1        0.2517
     14 O         142.3088  142.4209  165.9560 O.2     1  UNL1       -0.2697
     15 H         138.8900  143.0476  166.2184 H       1  UNL1        0.1552
     16 C         140.7686  142.0749  168.0196 C.ar    1  UNL1        0.0811
     17 C         140.4438  143.0968  169.0685 C.ar    1  UNL1        0.0068
     18 C         140.2600  142.6740  170.4959 C.ar    1  UNL1        0.0003
     19 C         140.4009  141.2294  170.8743 C.ar    1  UNL1        0.0023
     20 C         140.7256  140.2075  169.8254 C.ar    1  UNL1        0.0298
     21 C         140.9095  140.6303  168.3980 C.ar    1  UNL1        0.1445
     22 F         141.2343  139.6085  167.3490 F       1  UNL1       -0.2040
     23 N         139.5585  144.9251  156.3372 N.pl3   1  UNL1       -0.2871
     24 H         138.6720  144.5170  156.2077 H       1  UNL1        0.1512
     25 C         140.3075  145.4804  155.1622 C.3     1  UNL1        0.0925
     26 C         140.2313  146.9453  154.8486 C.3     1  UNL1        0.0386
     27 C         138.9789  147.7131  155.1519 C.3     1  UNL1        0.0738
     28 C         139.8801  149.5773  152.6297 C.3     1  UNL1        0.0173
     29 C         139.4077  150.0697  153.9655 C.3     1  UNL1        0.0575
     30 C         139.2667  151.5053  154.3764 C.3     1  UNL1        0.0173
     31 C         138.7653  151.5357  155.7898 C.3     1  UNL1        0.0173
     32 C         138.5964  150.1189  156.2523 C.3     1  UNL1        0.0575
     33 C         138.1151  149.6843  157.6049 C.3     1  UNL1        0.0173
     34 N         138.9935  149.2128  155.1248 N.3     1  UNL1       -0.2752
@<TRIPOS>BOND
     1    29    28    1
     2    29    30    1
     3    30    31    1
     4    31    32    1
     5    32    33    1
     6    32    34    1
     7    34    27    1
     8    27    26    1
     9    26    25    1
    10    25    23    1
    11    23     1    1
    12     1     2   ar
    13     2     3   ar
    14     3     4   ar
    15     4     6    1
    16     6     7   ar
    17     7     8   ar
    18     8     9   ar
    19     9    12    1
    20    12    13   am
    21    13    14    2
    22    13    16    1
    23    16    17   ar
    24    17    18   ar
    25    18    19   ar
    26    19    20   ar
    27    20    21   ar
    28    21    22    1
    29     9    10   ar
    30    10    11   ar
    31     4     5   ar
    32    34    29    1
    33     5     1   ar
    34    11     6   ar
    35    21    16   ar
    36    23    24    1
    37    12    15    1
