@<TRIPOS>MOLECULE
*****
 26 28 0 0 0
SMALL
GASTEIGER

@<TRIPOS>ATOM
      1 C         140.5131  141.0551  167.4499 C.3     1  UNL1        0.0868
      2 F         142.1765  139.6153  165.4102 F       1  UNL1       -0.2045
      3 C         140.7871  139.1398  165.7159 C.ar    1  UNL1        0.1374
      4 C         140.2294  137.9444  165.0018 C.ar    1  UNL1        0.0294
      5 C         138.8400  137.4689  165.3075 C.ar    1  UNL1        0.0023
      6 C         138.0083  138.1887  166.3273 C.ar    1  UNL1       -0.0001
      7 C         138.5660  139.3841  167.0414 C.ar    1  UNL1       -0.0007
      8 C         139.9554  139.8596  166.7357 C.ar    1  UNL1        0.0200
      9 N         141.0684  140.9093  168.8356 N.3     1  UNL1       -0.2676
     10 C         142.2640  140.0360  169.0765 C.3     1  UNL1        0.0896
     11 C         142.8193  139.8902  170.4623 C.3     1  UNL1        0.0862
     12 N         142.1791  140.6177  171.6072 N.3     1  UNL1       -0.2951
     13 C         140.9835  141.4910  171.3663 C.3     1  UNL1        0.0862
     14 C         140.4282  141.6368  169.9806 C.3     1  UNL1        0.0896
     15 H         142.8993  141.2114  172.0185 H       1  UNL1        0.1233
     16 C         140.5155  142.3963  166.7782 C.3     1  UNL1        0.0500
     17 C         141.6491  142.7803  165.8742 C.ar    1  UNL1        0.0137
     18 C         143.0663  142.6214  166.3393 C.ar    1  UNL1       -0.0012
     19 C         144.1999  143.0055  165.4352 C.ar    1  UNL1       -0.0001
     20 C         143.9164  143.5485  164.0660 C.ar    1  UNL1        0.0031
     21 C         142.4993  143.7074  163.6008 C.ar    1  UNL1        0.0368
     22 C         141.3656  143.3234  164.5049 C.ar    1  UNL1        0.1403
     23 O         139.9484  143.4823  164.0398 O.3     1  UNL1       -0.4240
     24 C         139.2855  144.8265  164.1003 C.3     1  UNL1        0.5086
     25 F         139.1840  145.6691  162.8635 F       1  UNL1       -0.1550
     26 F         138.7239  145.3280  165.3977 F       1  UNL1       -0.1550
@<TRIPOS>BOND
     1     2     3    1
     2     3     4   ar
     3     4     5   ar
     4     5     6   ar
     5     6     7   ar
     6     7     8   ar
     7     8     1    1
     8     1    16    1
     9    16    17    1
    10    17    18   ar
    11    18    19   ar
    12    19    20   ar
    13    20    21   ar
    14    21    22   ar
    15    22    23    1
    16    23    24    1
    17    24    25    1
    18    24    26    1
    19     1     9    1
    20     9    10    1
    21    10    11    1
    22    11    12    1
    23    12    13    1
    24    13    14    1
    25     8     3   ar
    26    22    17   ar
    27    14     9    1
    28    12    15    1
@<TRIPOS>MOLECULE
*****
 26 28 0 0 0
SMALL
GASTEIGER

@<TRIPOS>ATOM
      1 C         141.3553  140.9243  167.1860 C.3     1  UNL1        0.0868
      2 F         142.5888  139.0339  165.2099 F       1  UNL1       -0.2045
      3 C         141.1304  138.9243  165.5429 C.ar    1  UNL1        0.1374
      4 C         140.2887  137.8696  164.8880 C.ar    1  UNL1        0.0294
      5 C         138.8302  137.7600  165.2210 C.ar    1  UNL1        0.0023
      6 C         138.2135  138.7052  166.2090 C.ar    1  UNL1       -0.0001
      7 C         139.0551  139.7599  166.8640 C.ar    1  UNL1       -0.0007
      8 C         140.5136  139.8695  166.5310 C.ar    1  UNL1        0.0200
      9 N         141.5896  140.8841  168.6670 N.3     1  UNL1       -0.2676
     10 C         142.6299  139.9661  169.2371 C.3     1  UNL1        0.0896
     11 C         142.8642  139.9259  170.7182 C.3     1  UNL1        0.0862
     12 N         142.0584  140.8039  171.6291 N.3     1  UNL1       -0.2951
     13 C         141.0181  141.7220  171.0590 C.3     1  UNL1        0.0862
     14 C         140.7838  141.7621  169.5780 C.3     1  UNL1        0.0896
     15 H         142.7217  141.3895  172.1364 H       1  UNL1        0.1233
     16 C         141.9626  142.0192  166.3600 C.3     1  UNL1        0.0500
     17 C         141.0786  142.9733  165.6128 C.ar    1  UNL1        0.0137
     18 C         139.7762  143.4150  166.2119 C.ar    1  UNL1       -0.0012
     19 C         138.8923  144.3691  165.4647 C.ar    1  UNL1       -0.0001
     20 C         139.3106  144.8814  164.1184 C.ar    1  UNL1        0.0031
     21 C         140.6128  144.4397  163.5193 C.ar    1  UNL1        0.0368
     22 C         141.4969  143.4856  164.2665 C.ar    1  UNL1        0.1403
     23 O         142.7991  143.0439  163.6674 O.3     1  UNL1       -0.4240
     24 C         144.0319  143.8779  163.8543 C.3     1  UNL1        0.5086
     25 F         144.4588  144.8361  162.7820 F       1  UNL1       -0.1550
     26 F         144.8376  143.7536  165.1133 F       1  UNL1       -0.1550
@<TRIPOS>BOND
     1     2     3    1
     2     3     4   ar
     3     4     5   ar
     4     5     6   ar
     5     6     7   ar
     6     7     8   ar
     7     8     1    1
     8     1    16    1
     9    16    17    1
    10    17    18   ar
    11    18    19   ar
    12    19    20   ar
    13    20    21   ar
    14    21    22   ar
    15    22    23    1
    16    23    24    1
    17    24    25    1
    18    24    26    1
    19     1     9    1
    20     9    10    1
    21    10    11    1
    22    11    12    1
    23    12    13    1
    24    13    14    1
    25     8     3   ar
    26    22    17   ar
    27    14     9    1
    28    12    15    1
@<TRIPOS>MOLECULE
*****
 26 28 0 0 0
SMALL
GASTEIGER

@<TRIPOS>ATOM
      1 C         140.1538  141.2641  166.6044 C.3     1  UNL1        0.0868
      2 F         137.7585  139.6875  165.7228 F       1  UNL1       -0.2045
      3 C         139.1382  139.1422  165.5014 C.ar    1  UNL1        0.1374
      4 C         139.3203  137.8087  164.8393 C.ar    1  UNL1        0.0294
      5 C         140.7000  137.2634  164.6180 C.ar    1  UNL1        0.0023
      6 C         141.8977  138.0516  165.0587 C.ar    1  UNL1       -0.0001
      7 C         141.7156  139.3852  165.7208 C.ar    1  UNL1       -0.0007
      8 C         140.3358  139.9305  165.9422 C.ar    1  UNL1        0.0200
      9 N         140.2078  141.3727  168.0994 N.3     1  UNL1       -0.2676
     10 C         139.9787  140.1576  168.9485 C.3     1  UNL1        0.0896
     11 C         140.0328  140.2663  170.4436 C.3     1  UNL1        0.0862
     12 N         140.3160  141.5901  171.0896 N.3     1  UNL1       -0.2951
     13 C         140.5451  142.8053  170.2405 C.3     1  UNL1        0.0862
     14 C         140.4910  142.6966  168.7455 C.3     1  UNL1        0.0896
     15 H         141.1531  141.4668  171.6591 H       1  UNL1        0.1233
     16 C         139.9177  142.4890  165.7714 C.3     1  UNL1        0.0500
     17 C         141.0808  143.2337  165.1862 C.ar    1  UNL1        0.0137
     18 C         142.4785  142.7370  165.4097 C.ar    1  UNL1       -0.0012
     19 C         143.6416  143.4817  164.8245 C.ar    1  UNL1       -0.0001
     20 C         143.4072  144.7231  164.0159 C.ar    1  UNL1        0.0031
     21 C         142.0096  145.2199  163.7924 C.ar    1  UNL1        0.0368
     22 C         140.8464  144.4751  164.3776 C.ar    1  UNL1        0.1403
     23 O         139.4488  144.9719  164.1542 O.3     1  UNL1       -0.4240
     24 C         138.7141  144.6050  162.8989 C.3     1  UNL1        0.5086
     25 F         137.3215  144.0533  162.9790 F       1  UNL1       -0.1550
     26 F         139.3720  144.7898  161.5636 F       1  UNL1       -0.1550
@<TRIPOS>BOND
     1     2     3    1
     2     3     4   ar
     3     4     5   ar
     4     5     6   ar
     5     6     7   ar
     6     7     8   ar
     7     8     1    1
     8     1    16    1
     9    16    17    1
    10    17    18   ar
    11    18    19   ar
    12    19    20   ar
    13    20    21   ar
    14    21    22   ar
    15    22    23    1
    16    23    24    1
    17    24    25    1
    18    24    26    1
    19     1     9    1
    20     9    10    1
    21    10    11    1
    22    11    12    1
    23    12    13    1
    24    13    14    1
    25     8     3   ar
    26    22    17   ar
    27    14     9    1
    28    12    15    1
@<TRIPOS>MOLECULE
*****
 26 28 0 0 0
SMALL
GASTEIGER

@<TRIPOS>ATOM
      1 C         141.3251  141.1158  167.0517 C.3     1  UNL1        0.0868
      2 F         142.6789  143.1916  165.3611 F       1  UNL1       -0.2045
      3 C         143.1350  141.7637  165.3040 C.ar    1  UNL1        0.1374
      4 C         144.2679  141.3737  164.4016 C.ar    1  UNL1        0.0294
      5 C         144.7240  139.9459  164.3446 C.ar    1  UNL1        0.0023
      6 C         144.0471  138.9080  165.1899 C.ar    1  UNL1       -0.0001
      7 C         142.9141  139.2980  166.0922 C.ar    1  UNL1       -0.0007
      8 C         142.4581  140.7259  166.1493 C.ar    1  UNL1        0.0200
      9 N         141.5840  141.9800  168.2501 N.3     1  UNL1       -0.2676
     10 C         142.8991  141.8943  168.9665 C.3     1  UNL1        0.0896
     11 C         143.1580  142.7586  170.1649 C.3     1  UNL1        0.0862
     12 N         142.1019  143.7085  170.6468 N.3     1  UNL1       -0.2951
     13 C         140.7869  143.7942  169.9303 C.3     1  UNL1        0.0862
     14 C         140.5279  142.9300  168.7320 C.3     1  UNL1        0.0896
     15 H         142.5121  144.6421  170.6220 H       1  UNL1        0.1233
     16 C         139.9332  140.6415  166.7558 C.3     1  UNL1        0.0500
     17 C         139.1915  141.1854  165.5708 C.ar    1  UNL1        0.0137
     18 C         139.2899  142.6427  165.2287 C.ar    1  UNL1       -0.0012
     19 C         138.5483  143.1866  164.0438 C.ar    1  UNL1       -0.0001
     20 C         137.7083  142.2734  163.2009 C.ar    1  UNL1        0.0031
     21 C         137.6099  140.8162  163.5430 C.ar    1  UNL1        0.0368
     22 C         138.3515  140.2722  164.7280 C.ar    1  UNL1        0.1403
     23 O         138.2532  138.8151  165.0700 O.3     1  UNL1       -0.4240
     24 C         139.1283  137.8192  164.3683 C.3     1  UNL1        0.5086
     25 F         138.7347  137.2941  163.0194 F       1  UNL1       -0.1550
     26 F         140.3970  137.3485  165.0154 F       1  UNL1       -0.1550
@<TRIPOS>BOND
     1     2     3    1
     2     3     4   ar
     3     4     5   ar
     4     5     6   ar
     5     6     7   ar
     6     7     8   ar
     7     8     1    1
     8     1    16    1
     9    16    17    1
    10    17    18   ar
    11    18    19   ar
    12    19    20   ar
    13    20    21   ar
    14    21    22   ar
    15    22    23    1
    16    23    24    1
    17    24    25    1
    18    24    26    1
    19     1     9    1
    20     9    10    1
    21    10    11    1
    22    11    12    1
    23    12    13    1
    24    13    14    1
    25     8     3   ar
    26    22    17   ar
    27    14     9    1
    28    12    15    1
@<TRIPOS>MOLECULE
*****
 26 28 0 0 0
SMALL
GASTEIGER

@<TRIPOS>ATOM
      1 C         141.7016  140.9191  166.8880 C.3     1  UNL1        0.0868
      2 F         139.8958  142.1601  164.8389 F       1  UNL1       -0.2045
      3 C         141.3165  142.6242  164.9659 C.ar    1  UNL1        0.1374
      4 C         141.8343  143.7088  164.0684 C.ar    1  UNL1        0.0294
      5 C         143.2550  144.1729  164.1954 C.ar    1  UNL1        0.0023
      6 C         144.1579  143.5525  165.2200 C.ar    1  UNL1       -0.0001
      7 C         143.6401  142.4679  166.1175 C.ar    1  UNL1       -0.0007
      8 C         142.2194  142.0038  165.9904 C.ar    1  UNL1        0.0200
      9 N         140.9026  141.2723  168.1073 N.3     1  UNL1       -0.2676
     10 C         139.9942  140.2538  168.7297 C.3     1  UNL1        0.0896
     11 C         139.1952  140.6071  169.9491 C.3     1  UNL1        0.0862
     12 N         139.3045  141.9788  170.5460 N.3     1  UNL1       -0.2951
     13 C         140.2130  142.9974  169.9236 C.3     1  UNL1        0.0862
     14 C         141.0120  142.6441  168.7043 C.3     1  UNL1        0.0896
     15 H         139.6156  141.8567  171.5097 H       1  UNL1        0.1233
     16 C         141.9830  139.4813  166.5662 C.3     1  UNL1        0.0500
     17 C         141.3380  138.8396  165.3737 C.ar    1  UNL1        0.0137
     18 C         139.8569  138.6024  165.3589 C.ar    1  UNL1       -0.0012
     19 C         139.2120  137.9607  164.1663 C.ar    1  UNL1       -0.0001
     20 C         140.0481  137.5562  162.9885 C.ar    1  UNL1        0.0031
     21 C         141.5291  137.7934  163.0032 C.ar    1  UNL1        0.0368
     22 C         142.1741  138.4351  164.1958 C.ar    1  UNL1        0.1403
     23 O         143.6552  138.6723  164.2105 O.3     1  UNL1       -0.4240
     24 C         144.2137  139.9608  163.6832 C.3     1  UNL1        0.5086
     25 F         145.6127  140.3716  164.0353 F       1  UNL1       -0.1550
     26 F         143.3732  140.8383  162.8038 F       1  UNL1       -0.1550
@<TRIPOS>BOND
     1     2     3    1
     2     3     4   ar
     3     4     5   ar
     4     5     6   ar
     5     6     7   ar
     6     7     8   ar
     7     8     1    1
     8     1    16    1
     9    16    17    1
    10    17    18   ar
    11    18    19   ar
    12    19    20   ar
    13    20    21   ar
    14    21    22   ar
    15    22    23    1
    16    23    24    1
    17    24    25    1
    18    24    26    1
    19     1     9    1
    20     9    10    1
    21    10    11    1
    22    11    12    1
    23    12    13    1
    24    13    14    1
    25     8     3   ar
    26    22    17   ar
    27    14     9    1
    28    12    15    1
@<TRIPOS>MOLECULE
*****
 26 28 0 0 0
SMALL
GASTEIGER

@<TRIPOS>ATOM
      1 C         141.1692  142.1951  167.0641 C.3     1  UNL1        0.0868
      2 F         139.7642  139.7594  166.0185 F       1  UNL1       -0.2045
      3 C         139.3434  141.1235  165.5580 C.ar    1  UNL1        0.1374
      4 C         138.2202  141.2697  164.5747 C.ar    1  UNL1        0.0294
      5 C         137.7995  142.6339  164.1141 C.ar    1  UNL1        0.0023
      6 C         138.5019  143.8517  164.6368 C.ar    1  UNL1       -0.0001
      7 C         139.6251  143.7055  165.6202 C.ar    1  UNL1       -0.0007
      8 C         140.0459  142.3414  166.0807 C.ar    1  UNL1        0.0200
      9 N         140.8799  141.7852  168.4777 N.3     1  UNL1       -0.2676
     10 C         140.4301  142.8084  169.4782 C.3     1  UNL1        0.0896
     11 C         140.1408  142.3984  170.8918 C.3     1  UNL1        0.0862
     12 N         140.3012  140.9654  171.3049 N.3     1  UNL1       -0.2951
     13 C         140.7510  139.9423  170.3044 C.3     1  UNL1        0.0862
     14 C         141.0403  140.3522  168.8908 C.3     1  UNL1        0.0896
     15 H         139.3942  140.6565  171.6546 H       1  UNL1        0.1233
     16 C         142.5817  142.4588  166.6338 C.3     1  UNL1        0.0500
     17 C         143.2895  141.4809  165.7436 C.ar    1  UNL1        0.0137
     18 C         142.9612  140.0194  165.8242 C.ar    1  UNL1       -0.0012
     19 C         143.6690  139.0415  164.9340 C.ar    1  UNL1       -0.0001
     20 C         144.7052  139.5249  163.9631 C.ar    1  UNL1        0.0031
     21 C         145.0336  140.9862  163.8824 C.ar    1  UNL1        0.0368
     22 C         144.3257  141.9643  164.7727 C.ar    1  UNL1        0.1403
     23 O         144.6541  143.4256  164.6921 O.3     1  UNL1       -0.4240
     24 C         143.9663  144.2942  163.6809 C.3     1  UNL1        0.5086
     25 F         144.3228  144.1806  162.2282 F       1  UNL1       -0.1550
     26 F         142.9221  145.2764  164.1223 F       1  UNL1       -0.1550
@<TRIPOS>BOND
     1     2     3    1
     2     3     4   ar
     3     4     5   ar
     4     5     6   ar
     5     6     7   ar
     6     7     8   ar
     7     8     1    1
     8     1    16    1
     9    16    17    1
    10    17    18   ar
    11    18    19   ar
    12    19    20   ar
    13    20    21   ar
    14    21    22   ar
    15    22    23    1
    16    23    24    1
    17    24    25    1
    18    24    26    1
    19     1     9    1
    20     9    10    1
    21    10    11    1
    22    11    12    1
    23    12    13    1
    24    13    14    1
    25     8     3   ar
    26    22    17   ar
    27    14     9    1
    28    12    15    1
@<TRIPOS>MOLECULE
*****
 26 28 0 0 0
SMALL
GASTEIGER

@<TRIPOS>ATOM
      1 C         140.3508  141.1647  164.5737 C.3     1  UNL1        0.0868
      2 F         142.1182  142.8900  166.2765 F       1  UNL1       -0.2045
      3 C         141.1799  141.9123  166.9197 C.ar    1  UNL1        0.1374
      4 C         141.1254  141.7972  168.4143 C.ar    1  UNL1        0.0294
      5 C         140.1872  140.8194  169.0575 C.ar    1  UNL1        0.0023
      6 C         139.3035  139.9568  168.2061 C.ar    1  UNL1       -0.0001
      7 C         139.3580  140.0719  166.7116 C.ar    1  UNL1       -0.0007
      8 C         140.2963  141.0496  166.0684 C.ar    1  UNL1        0.0200
      9 N         139.4202  142.0990  163.8590 N.3     1  UNL1       -0.2676
     10 C         138.9871  141.7976  162.4549 C.3     1  UNL1        0.0896
     11 C         138.0564  142.7321  161.7401 C.3     1  UNL1        0.0862
     12 N         137.5589  143.9679  162.4295 N.3     1  UNL1       -0.2951
     13 C         137.9920  144.2693  163.8337 C.3     1  UNL1        0.0862
     14 C         138.9226  143.3349  164.5484 C.3     1  UNL1        0.0896
     15 H         136.5407  143.9085  162.4418 H       1  UNL1        0.1233
     16 C         141.3359  140.3453  163.7939 C.3     1  UNL1        0.0500
     17 C         142.7815  140.7440  163.7586 C.ar    1  UNL1        0.0137
     18 C         143.1806  142.0676  163.1764 C.ar    1  UNL1       -0.0012
     19 C         144.6261  142.4663  163.1412 C.ar    1  UNL1       -0.0001
     20 C         145.6728  141.5413  163.6881 C.ar    1  UNL1        0.0031
     21 C         145.2738  140.2178  164.2702 C.ar    1  UNL1        0.0368
     22 C         143.8282  139.8191  164.3055 C.ar    1  UNL1        0.1403
     23 O         143.4292  138.4955  164.8877 O.3     1  UNL1       -0.4240
     24 C         143.5399  138.2621  166.3653 C.3     1  UNL1        0.5086
     25 F         144.5173  137.2545  166.8942 F       1  UNL1       -0.1550
     26 F         142.6733  139.0361  167.3139 F       1  UNL1       -0.1550
@<TRIPOS>BOND
     1     2     3    1
     2     3     4   ar
     3     4     5   ar
     4     5     6   ar
     5     6     7   ar
     6     7     8   ar
     7     8     1    1
     8     1    16    1
     9    16    17    1
    10    17    18   ar
    11    18    19   ar
    12    19    20   ar
    13    20    21   ar
    14    21    22   ar
    15    22    23    1
    16    23    24    1
    17    24    25    1
    18    24    26    1
    19     1     9    1
    20     9    10    1
    21    10    11    1
    22    11    12    1
    23    12    13    1
    24    13    14    1
    25     8     3   ar
    26    22    17   ar
    27    14     9    1
    28    12    15    1
@<TRIPOS>MOLECULE
*****
 26 28 0 0 0
SMALL
GASTEIGER

@<TRIPOS>ATOM
      1 C         141.9819  140.6690  166.7063 C.3     1  UNL1        0.0868
      2 F         142.5730  138.2593  165.0199 F       1  UNL1       -0.2045
      3 C         141.1589  138.5741  165.4085 C.ar    1  UNL1        0.1374
      4 C         140.0403  137.6841  164.9540 C.ar    1  UNL1        0.0294
      5 C         138.6261  137.9990  165.3426 C.ar    1  UNL1        0.0023
      6 C         138.3306  139.2038  166.1858 C.ar    1  UNL1       -0.0001
      7 C         139.4492  140.0938  166.6403 C.ar    1  UNL1       -0.0007
      8 C         140.8633  139.7789  166.2517 C.ar    1  UNL1        0.0200
      9 N         142.1526  140.9734  168.1651 N.3     1  UNL1       -0.2676
     10 C         141.9662  142.3751  168.6656 C.3     1  UNL1        0.0896
     11 C         142.1369  142.6795  170.1245 C.3     1  UNL1        0.0862
     12 N         142.4940  141.5822  171.0828 N.3     1  UNL1       -0.2951
     13 C         142.6803  140.1805  170.5823 C.3     1  UNL1        0.0862
     14 C         142.5097  139.8761  169.1235 C.3     1  UNL1        0.0896
     15 H         141.7521  141.5490  171.7820 H       1  UNL1        0.1233
     16 C         142.9298  141.2546  165.7020 C.3     1  UNL1        0.0500
     17 C         142.6269  142.5802  165.0689 C.ar    1  UNL1        0.0137
     18 C         141.2183  143.0954  165.0445 C.ar    1  UNL1       -0.0012
     19 C         140.9154  144.4210  164.4113 C.ar    1  UNL1       -0.0001
     20 C         142.0210  145.2315  163.8025 C.ar    1  UNL1        0.0031
     21 C         143.4296  144.7164  163.8268 C.ar    1  UNL1        0.0368
     22 C         143.7325  143.3907  164.4600 C.ar    1  UNL1        0.1403
     23 O         145.1411  142.8756  164.4844 O.3     1  UNL1       -0.4240
     24 C         145.5517  141.7706  163.5568 C.3     1  UNL1        0.5086
     25 F         145.8266  140.3993  164.0992 F       1  UNL1       -0.1550
     26 F         145.6875  142.0368  162.0869 F       1  UNL1       -0.1550
@<TRIPOS>BOND
     1     2     3    1
     2     3     4   ar
     3     4     5   ar
     4     5     6   ar
     5     6     7   ar
     6     7     8   ar
     7     8     1    1
     8     1    16    1
     9    16    17    1
    10    17    18   ar
    11    18    19   ar
    12    19    20   ar
    13    20    21   ar
    14    21    22   ar
    15    22    23    1
    16    23    24    1
    17    24    25    1
    18    24    26    1
    19     1     9    1
    20     9    10    1
    21    10    11    1
    22    11    12    1
    23    12    13    1
    24    13    14    1
    25     8     3   ar
    26    22    17   ar
    27    14     9    1
    28    12    15    1
@<TRIPOS>MOLECULE
*****
 26 28 0 0 0
SMALL
GASTEIGER

@<TRIPOS>ATOM
      1 C         141.3129  141.1710  167.4028 C.3     1  UNL1        0.0868
      2 F         142.7485  142.7726  165.3114 F       1  UNL1       -0.2045
      3 C         143.0902  141.3262  165.5141 C.ar    1  UNL1        0.1374
      4 C         144.1497  140.6805  164.6711 C.ar    1  UNL1        0.0294
      5 C         144.4914  139.2341  164.8739 C.ar    1  UNL1        0.0023
      6 C         143.7737  138.4333  165.9195 C.ar    1  UNL1       -0.0001
      7 C         142.7142  139.0789  166.7625 C.ar    1  UNL1       -0.0007
      8 C         142.3725  140.5254  166.5598 C.ar    1  UNL1        0.0200
      9 N         141.6069  141.5350  168.8279 N.3     1  UNL1       -0.2676
     10 C         140.8527  140.8721  169.9423 C.3     1  UNL1        0.0896
     11 C         141.1467  141.2361  171.3674 C.3     1  UNL1        0.0862
     12 N         142.1948  142.2632  171.6783 N.3     1  UNL1       -0.2951
     13 C         142.9490  142.9261  170.5640 C.3     1  UNL1        0.0862
     14 C         142.6550  142.5621  169.1388 C.3     1  UNL1        0.0896
     15 H         142.8874  141.8067  172.2718 H       1  UNL1        0.1233
     16 C         139.9595  141.4525  166.8206 C.3     1  UNL1        0.0500
     17 C         139.5102  140.7318  165.5843 C.ar    1  UNL1        0.0137
     18 C         139.1512  139.2770  165.6528 C.ar    1  UNL1       -0.0012
     19 C         138.7019  138.5563  164.4164 C.ar    1  UNL1       -0.0001
     20 C         138.6115  139.2904  163.1115 C.ar    1  UNL1        0.0031
     21 C         138.9704  140.7451  163.0429 C.ar    1  UNL1        0.0368
     22 C         139.4198  141.4659  164.2793 C.ar    1  UNL1        0.1403
     23 O         139.7787  142.9207  164.2107 O.3     1  UNL1       -0.4240
     24 C         138.7160  143.9645  164.3868 C.3     1  UNL1        0.5086
     25 F         137.4042  143.8273  163.6723 F       1  UNL1       -0.1550
     26 F         138.9649  145.1455  165.2774 F       1  UNL1       -0.1550
@<TRIPOS>BOND
     1     2     3    1
     2     3     4   ar
     3     4     5   ar
     4     5     6   ar
     5     6     7   ar
     6     7     8   ar
     7     8     1    1
     8     1    16    1
     9    16    17    1
    10    17    18   ar
    11    18    19   ar
    12    19    20   ar
    13    20    21   ar
    14    21    22   ar
    15    22    23    1
    16    23    24    1
    17    24    25    1
    18    24    26    1
    19     1     9    1
    20     9    10    1
    21    10    11    1
    22    11    12    1
    23    12    13    1
    24    13    14    1
    25     8     3   ar
    26    22    17   ar
    27    14     9    1
    28    12    15    1
