@<TRIPOS>MOLECULE
*****
 35 38 0 0 0
SMALL
GASTEIGER

@<TRIPOS>ATOM
      1 N         142.8293  138.7974  161.3770 N.am    1  UNL1       -0.3018
      2 C         141.7891  138.5396  160.3275 C.2     1  UNL1        0.2425
      3 O         140.3376  138.5002  160.7039 O.2     1  UNL1       -0.2733
      4 H         143.7820  138.8233  161.1299 H       1  UNL1        0.1495
      5 N         141.8365  139.3251  164.8193 N.3     1  UNL1       -0.2711
      6 C         142.3455  140.2041  163.7156 C.3     1  UNL1        0.0933
      7 C         142.4181  139.0159  162.8028 C.3     1  UNL1        0.1035
      8 C         141.9091  138.1370  163.9066 C.3     1  UNL1        0.0933
      9 C         140.6026  139.9806  169.0970 C.3     1  UNL1        0.0297
     10 C         139.5714  139.9981  168.0079 C.3     1  UNL1        0.0039
     11 C         139.9827  139.7796  166.5820 C.3     1  UNL1        0.0160
     12 C         141.4252  139.5436  166.2452 C.3     1  UNL1        0.0576
     13 C         142.4564  139.5260  167.3343 C.3     1  UNL1        0.0160
     14 C         142.0452  139.7445  168.7601 C.3     1  UNL1        0.0039
     15 C         140.1915  140.1990  170.5228 C.3     1  UNL1        0.1421
     16 O         140.4153  141.5327  171.1720 O.3     1  UNL1       -0.3538
     17 C         140.5203  143.6743  169.7047 C.3     1  UNL1        0.0346
     18 C         139.7553  142.7587  170.6138 C.3     1  UNL1        0.1422
     19 C         142.2003  138.3211  158.9017 C.3     1  UNL1        0.1747
     20 N         142.9889  137.1012  158.5270 N.pl3   1  UNL1       -0.3093
     21 H         143.6394  136.7216  159.1611 H       1  UNL1        0.1487
     22 C         142.7865  136.4598  157.1863 C.ar    1  UNL1        0.1500
     23 N         142.1674  137.1078  155.9834 N.ar    1  UNL1       -0.1544
     24 N         142.1659  136.1062  154.8667 N.ar    1  UNL1       -0.2476
     25 C         141.6388  136.3320  153.4806 C.3     1  UNL1        0.1537
     26 C         142.7840  134.8393  155.3795 C.ar    1  UNL1        0.0807
     27 C         143.0470  133.5149  154.7263 C.ar    1  UNL1        0.0188
     28 C         143.6937  132.4091  155.5066 C.ar    1  UNL1        0.0054
     29 C         144.0772  132.6276  156.9402 C.ar    1  UNL1        0.0716
     30 C         143.8141  133.9520  157.5934 C.ar    1  UNL1        0.0082
     31 C         143.1675  135.0578  156.8131 C.ar    1  UNL1        0.0503
     32 C         144.7239  131.5217  157.7205 C.3     1  UNL1        0.4186
     33 F         145.3705  130.4158  158.5008 F       1  UNL1       -0.1659
     34 F         145.7444  132.4881  158.2445 F       1  UNL1       -0.1659
     35 F         143.7034  130.5553  157.1965 F       1  UNL1       -0.1659
@<TRIPOS>BOND
     1    17    18    1
     2    18    16    1
     3    16    15    1
     4     9    15    1
     5     9    10    1
     6    10    11    1
     7    11    12    1
     8    12     5    1
     9     5     6    1
    10     6     7    1
    11     7     1    1
    12     1     2   am
    13     2     3    2
    14     2    19    1
    15    19    20    1
    16    20    22    1
    17    22    23   ar
    18    23    24   ar
    19    24    25    1
    20    24    26   ar
    21    26    27   ar
    22    27    28   ar
    23    28    29   ar
    24    29    32    1
    25    32    33    1
    26    32    34    1
    27    32    35    1
    28    29    30   ar
    29    30    31   ar
    30     7     8    1
    31    12    13    1
    32    13    14    1
    33    14     9    1
    34     8     5    1
    35    31    22   ar
    36    31    26   ar
    37     1     4    1
    38    20    21    1
@<TRIPOS>MOLECULE
*****
 35 38 0 0 0
SMALL
GASTEIGER

@<TRIPOS>ATOM
      1 N         140.5186  138.4707  160.5059 N.am    1  UNL1       -0.3018
      2 C         141.8717  138.3501  159.8698 C.2     1  UNL1        0.2425
      3 O         143.1089  138.5214  160.7004 O.2     1  UNL1       -0.2733
      4 H         139.7066  138.3582  159.9608 H       1  UNL1        0.1495
      5 N         140.2391  139.1751  164.0471 N.3     1  UNL1       -0.2711
      6 C         140.5637  137.9599  163.2298 C.3     1  UNL1        0.0933
      7 C         140.4028  138.7625  161.9727 C.3     1  UNL1        0.1035
      8 C         140.0783  139.9776  162.7901 C.3     1  UNL1        0.0933
      9 C         139.8918  140.0507  168.4474 C.3     1  UNL1        0.0297
     10 C         141.1980  140.2630  167.7413 C.3     1  UNL1        0.0039
     11 C         141.3138  139.9711  166.2745 C.3     1  UNL1        0.0160
     12 C         140.1233  139.4670  165.5139 C.3     1  UNL1        0.0576
     13 C         138.8171  139.2547  166.2200 C.3     1  UNL1        0.0160
     14 C         138.7013  139.5465  167.6867 C.3     1  UNL1        0.0039
     15 C         139.7759  140.3425  169.9142 C.3     1  UNL1        0.1421
     16 O         139.0254  141.5546  170.3807 O.3     1  UNL1       -0.3538
     17 C         140.4371  143.5575  169.5171 C.3     1  UNL1        0.0346
     18 C         139.7596  142.8359  170.6441 C.3     1  UNL1        0.1422
     19 C         141.9874  138.0582  158.4031 C.3     1  UNL1        0.1747
     20 N         143.0104  137.0770  157.9120 N.pl3   1  UNL1       -0.3093
     21 H         143.8615  136.9700  158.3951 H       1  UNL1        0.1487
     22 C         142.7365  136.2590  156.6849 C.ar    1  UNL1        0.1500
     23 N         142.0245  136.7306  155.4517 N.ar    1  UNL1       -0.1544
     24 N         141.9745  135.5887  154.4803 N.ar    1  UNL1       -0.2476
     25 C         141.3526  135.6188  153.1156 C.3     1  UNL1        0.1537
     26 C         142.6555  134.4115  155.1130 C.ar    1  UNL1        0.0807
     27 C         142.9077  133.0159  154.6245 C.ar    1  UNL1        0.0188
     28 C         143.6307  132.0346  155.4986 C.ar    1  UNL1        0.0054
     29 C         144.1017  132.4488  156.8612 C.ar    1  UNL1        0.0716
     30 C         143.8495  133.8444  157.3497 C.ar    1  UNL1        0.0082
     31 C         143.1265  134.8258  156.4756 C.ar    1  UNL1        0.0503
     32 C         144.8248  131.4674  157.7353 C.3     1  UNL1        0.4186
     33 F         145.5478  130.4860  158.6093 F       1  UNL1       -0.1659
     34 F         145.8393  132.5183  158.0761 F       1  UNL1       -0.1659
     35 F         143.8103  130.4165  157.3945 F       1  UNL1       -0.1659
@<TRIPOS>BOND
     1    17    18    1
     2    18    16    1
     3    16    15    1
     4     9    15    1
     5     9    10    1
     6    10    11    1
     7    11    12    1
     8    12     5    1
     9     5     6    1
    10     6     7    1
    11     7     1    1
    12     1     2   am
    13     2     3    2
    14     2    19    1
    15    19    20    1
    16    20    22    1
    17    22    23   ar
    18    23    24   ar
    19    24    25    1
    20    24    26   ar
    21    26    27   ar
    22    27    28   ar
    23    28    29   ar
    24    29    32    1
    25    32    33    1
    26    32    34    1
    27    32    35    1
    28    29    30   ar
    29    30    31   ar
    30     7     8    1
    31    12    13    1
    32    13    14    1
    33    14     9    1
    34     8     5    1
    35    31    22   ar
    36    31    26   ar
    37     1     4    1
    38    20    21    1
@<TRIPOS>MOLECULE
*****
 35 38 0 0 0
SMALL
GASTEIGER

@<TRIPOS>ATOM
      1 N         143.7130  138.8269  162.1467 N.am    1  UNL1       -0.3018
      2 C         143.4478  139.7341  160.9820 C.2     1  UNL1        0.2425
      3 O         142.9394  141.1258  161.2159 O.2     1  UNL1       -0.2733
      4 H         144.0467  137.9134  161.9932 H       1  UNL1        0.1495
      5 N         143.1258  139.9966  165.5233 N.3     1  UNL1       -0.2711
      6 C         142.2547  139.6808  164.3437 C.3     1  UNL1        0.0933
      7 C         143.4698  139.3114  163.5453 C.3     1  UNL1        0.1035
      8 C         144.3408  139.6272  164.7250 C.3     1  UNL1        0.0933
      9 C         142.3962  141.4503  169.7191 C.3     1  UNL1        0.0297
     10 C         142.8227  142.4166  168.6541 C.3     1  UNL1        0.0039
     11 C         143.0659  141.9321  167.2555 C.3     1  UNL1        0.0160
     12 C         142.8826  140.4812  166.9219 C.3     1  UNL1        0.0576
     13 C         142.4562  139.5148  167.9869 C.3     1  UNL1        0.0160
     14 C         142.2130  139.9993  169.3854 C.3     1  UNL1        0.0039
     15 C         142.1530  141.9347  171.1177 C.3     1  UNL1        0.1421
     16 O         140.7503  142.1499  171.6035 O.3     1  UNL1       -0.3538
     17 C         140.1966  144.2099  170.1204 C.3     1  UNL1        0.0346
     18 C         139.7760  142.9221  170.7642 C.3     1  UNL1        0.1422
     19 C         143.6910  139.2495  159.5834 C.3     1  UNL1        0.1747
     20 N         142.6286  138.4731  158.8633 N.pl3   1  UNL1       -0.3093
     21 H         142.8597  137.6360  158.3994 H       1  UNL1        0.1487
     22 C         141.2140  138.9719  158.8501 C.ar    1  UNL1        0.1500
     23 N         140.5322  139.6594  157.7044 N.ar    1  UNL1       -0.1544
     24 N         139.1298  139.9832  158.1265 N.ar    1  UNL1       -0.2476
     25 C         138.0941  140.6732  157.2891 C.3     1  UNL1        0.1537
     26 C         138.9447  139.4959  159.5330 C.ar    1  UNL1        0.0807
     27 C         137.7698  139.5406  160.4643 C.ar    1  UNL1        0.0188
     28 C         137.8829  138.9602  161.8428 C.ar    1  UNL1        0.0054
     29 C         139.1711  138.3352  162.2900 C.ar    1  UNL1        0.0716
     30 C         140.3461  138.2906  161.3587 C.ar    1  UNL1        0.0082
     31 C         140.2329  138.8709  159.9802 C.ar    1  UNL1        0.0503
     32 C         139.2842  137.7549  163.6686 C.3     1  UNL1        0.4186
     33 F         139.3974  137.1745  165.0471 F       1  UNL1       -0.1659
     34 F         138.1633  138.6372  164.1321 F       1  UNL1       -0.1659
     35 F         140.4052  136.8725  163.2051 F       1  UNL1       -0.1659
@<TRIPOS>BOND
     1    17    18    1
     2    18    16    1
     3    16    15    1
     4     9    15    1
     5     9    10    1
     6    10    11    1
     7    11    12    1
     8    12     5    1
     9     5     6    1
    10     6     7    1
    11     7     1    1
    12     1     2   am
    13     2     3    2
    14     2    19    1
    15    19    20    1
    16    20    22    1
    17    22    23   ar
    18    23    24   ar
    19    24    25    1
    20    24    26   ar
    21    26    27   ar
    22    27    28   ar
    23    28    29   ar
    24    29    32    1
    25    32    33    1
    26    32    34    1
    27    32    35    1
    28    29    30   ar
    29    30    31   ar
    30     7     8    1
    31    12    13    1
    32    13    14    1
    33    14     9    1
    34     8     5    1
    35    31    22   ar
    36    31    26   ar
    37     1     4    1
    38    20    21    1
@<TRIPOS>MOLECULE
*****
 35 38 0 0 0
SMALL
GASTEIGER

@<TRIPOS>ATOM
      1 N         142.0713  139.6274  161.4582 N.am    1  UNL1       -0.3018
      2 C         143.4584  139.8330  160.9256 C.2     1  UNL1        0.2425
      3 O         144.5852  140.1408  161.8667 O.2     1  UNL1       -0.2733
      4 H         141.3318  139.4254  160.8405 H       1  UNL1        0.1495
      5 N         141.4430  139.8742  165.0161 N.3     1  UNL1       -0.2711
      6 C         141.6296  138.7438  164.0479 C.3     1  UNL1        0.0933
      7 C         141.8111  139.7297  162.9319 C.3     1  UNL1        0.1035
      8 C         141.6244  140.8600  163.9001 C.3     1  UNL1        0.0933
      9 C         140.6621  140.1809  169.4372 C.3     1  UNL1        0.0297
     10 C         142.0716  140.1482  168.9250 C.3     1  UNL1        0.0039
     11 C         142.3319  140.0460  167.4513 C.3     1  UNL1        0.0160
     12 C         141.1827  139.9764  166.4898 C.3     1  UNL1        0.0576
     13 C         139.7732  140.0091  167.0019 C.3     1  UNL1        0.0160
     14 C         139.5129  140.1113  168.4756 C.3     1  UNL1        0.0039
     15 C         140.4017  140.2832  170.9108 C.3     1  UNL1        0.1421
     16 O         140.4762  141.6161  171.5949 O.3     1  UNL1       -0.3538
     17 C         140.4243  143.6444  169.9722 C.3     1  UNL1        0.0346
     18 C         139.7569  142.7979  171.0152 C.3     1  UNL1        0.1422
     19 C         143.7187  139.7308  159.4519 C.3     1  UNL1        0.1747
     20 N         143.6821  140.9625  158.5966 N.pl3   1  UNL1       -0.3093
     21 H         144.4348  141.1674  157.9960 H       1  UNL1        0.1487
     22 C         142.4985  141.8821  158.6562 C.ar    1  UNL1        0.1500
     23 N         141.3748  141.9383  157.6642 N.ar    1  UNL1       -0.1544
     24 N         140.4126  142.9978  158.1133 N.ar    1  UNL1       -0.2476
     25 C         139.1441  143.3900  157.4154 C.3     1  UNL1        0.1537
     26 C         140.9417  143.5965  159.3828 C.ar    1  UNL1        0.0807
     27 C         140.4162  144.6804  160.2766 C.ar    1  UNL1        0.0188
     28 C         141.1798  145.0747  161.5060 C.ar    1  UNL1        0.0054
     29 C         142.4690  144.3851  161.8415 C.ar    1  UNL1        0.0716
     30 C         142.9945  143.3012  160.9477 C.ar    1  UNL1        0.0082
     31 C         142.2309  142.9069  159.7184 C.ar    1  UNL1        0.0503
     32 C         143.2326  144.7795  163.0709 C.3     1  UNL1        0.4186
     33 F         143.9962  145.1739  164.3003 F       1  UNL1       -0.1659
     34 F         144.4392  144.0534  162.5545 F       1  UNL1       -0.1659
     35 F         142.0260  145.5057  163.5874 F       1  UNL1       -0.1659
@<TRIPOS>BOND
     1    17    18    1
     2    18    16    1
     3    16    15    1
     4     9    15    1
     5     9    10    1
     6    10    11    1
     7    11    12    1
     8    12     5    1
     9     5     6    1
    10     6     7    1
    11     7     1    1
    12     1     2   am
    13     2     3    2
    14     2    19    1
    15    19    20    1
    16    20    22    1
    17    22    23   ar
    18    23    24   ar
    19    24    25    1
    20    24    26   ar
    21    26    27   ar
    22    27    28   ar
    23    28    29   ar
    24    29    32    1
    25    32    33    1
    26    32    34    1
    27    32    35    1
    28    29    30   ar
    29    30    31   ar
    30     7     8    1
    31    12    13    1
    32    13    14    1
    33    14     9    1
    34     8     5    1
    35    31    22   ar
    36    31    26   ar
    37     1     4    1
    38    20    21    1
@<TRIPOS>MOLECULE
*****
 35 38 0 0 0
SMALL
GASTEIGER

@<TRIPOS>ATOM
      1 N         140.3050  139.5851  161.3675 N.am    1  UNL1       -0.3018
      2 C         138.9853  139.6263  160.6557 C.2     1  UNL1        0.2425
      3 O         137.7122  139.7323  161.4417 O.2     1  UNL1       -0.2733
      4 H         141.1406  139.5155  160.8516 H       1  UNL1        0.1495
      5 N         140.4173  139.7420  164.9837 N.3     1  UNL1       -0.2711
      6 C         140.2143  140.7422  163.8845 C.3     1  UNL1        0.0933
      7 C         140.3515  139.6500  162.8654 C.3     1  UNL1        0.1035
      8 C         140.5546  138.6499  163.9646 C.3     1  UNL1        0.0933
      9 C         140.5569  139.9367  169.4773 C.3     1  UNL1        0.0297
     10 C         139.2377  139.9862  168.7651 C.3     1  UNL1        0.0039
     11 C         139.1912  139.9213  167.2672 C.3     1  UNL1        0.0160
     12 C         140.4639  139.8069  166.4816 C.3     1  UNL1        0.0576
     13 C         141.7830  139.7574  167.1938 C.3     1  UNL1        0.0160
     14 C         141.8296  139.8223  168.6916 C.3     1  UNL1        0.0039
     15 C         140.6036  140.0016  170.9751 C.3     1  UNL1        0.1421
     16 O         140.7258  141.3281  171.6649 O.3     1  UNL1       -0.3538
     17 C         140.2273  143.3580  170.1219 C.3     1  UNL1        0.0346
     18 C         141.2031  142.5286  170.9028 C.3     1  UNL1        0.1422
     19 C         138.9388  139.5613  159.1578 C.3     1  UNL1        0.1747
     20 N         138.6544  140.8006  158.3619 N.pl3   1  UNL1       -0.3093
     21 H         137.8751  140.8318  157.7611 H       1  UNL1        0.1487
     22 C         139.5575  141.9924  158.4813 C.ar    1  UNL1        0.1500
     23 N         140.5818  142.4267  157.4753 N.ar    1  UNL1       -0.1544
     24 N         141.2521  143.6618  158.0000 N.ar    1  UNL1       -0.2476
     25 C         142.3413  144.4326  157.3148 C.3     1  UNL1        0.1537
     26 C         140.6420  143.9907  159.3303 C.ar    1  UNL1        0.0807
     27 C         140.9049  145.0965  160.3092 C.ar    1  UNL1        0.0188
     28 C         140.1204  145.1704  161.5855 C.ar    1  UNL1        0.0054
     29 C         139.0730  144.1386  161.8830 C.ar    1  UNL1        0.0716
     30 C         138.8102  143.0329  160.9041 C.ar    1  UNL1        0.0082
     31 C         139.5947  142.9590  159.6278 C.ar    1  UNL1        0.0503
     32 C         138.2885  144.2126  163.1594 C.3     1  UNL1        0.4186
     33 F         137.5041  144.2866  164.4357 F       1  UNL1       -0.1659
     34 F         137.4297  143.0728  162.6976 F       1  UNL1       -0.1659
     35 F         139.1474  145.3524  163.6211 F       1  UNL1       -0.1659
@<TRIPOS>BOND
     1    17    18    1
     2    18    16    1
     3    16    15    1
     4     9    15    1
     5     9    10    1
     6    10    11    1
     7    11    12    1
     8    12     5    1
     9     5     6    1
    10     6     7    1
    11     7     1    1
    12     1     2   am
    13     2     3    2
    14     2    19    1
    15    19    20    1
    16    20    22    1
    17    22    23   ar
    18    23    24   ar
    19    24    25    1
    20    24    26   ar
    21    26    27   ar
    22    27    28   ar
    23    28    29   ar
    24    29    32    1
    25    32    33    1
    26    32    34    1
    27    32    35    1
    28    29    30   ar
    29    30    31   ar
    30     7     8    1
    31    12    13    1
    32    13    14    1
    33    14     9    1
    34     8     5    1
    35    31    22   ar
    36    31    26   ar
    37     1     4    1
    38    20    21    1
@<TRIPOS>MOLECULE
*****
 35 38 0 0 0
SMALL
GASTEIGER

@<TRIPOS>ATOM
      1 N         141.2333  138.2874  160.7805 N.am    1  UNL1       -0.3018
      2 C         142.6156  137.8646  160.3800 C.2     1  UNL1        0.2425
      3 O         143.6945  137.7497  161.4158 O.2     1  UNL1       -0.2733
      4 H         140.5252  138.3628  160.1007 H       1  UNL1        0.1495
      5 N         140.5007  139.0307  164.2483 N.3     1  UNL1       -0.2711
      6 C         140.6984  139.8492  163.0069 C.3     1  UNL1        0.0933
      7 C         140.9299  138.5952  162.2169 C.3     1  UNL1        0.1035
      8 C         140.7322  137.7767  163.4582 C.3     1  UNL1        0.0933
      9 C         139.5904  139.9542  168.5574 C.3     1  UNL1        0.0297
     10 C         140.9714  140.1807  168.0173 C.3     1  UNL1        0.0039
     11 C         141.2748  139.8729  166.5810 C.3     1  UNL1        0.0160
     12 C         140.1973  139.3385  165.6846 C.3     1  UNL1        0.0576
     13 C         138.8164  139.1120  166.2247 C.3     1  UNL1        0.0160
     14 C         138.5129  139.4198  167.6610 C.3     1  UNL1        0.0039
     15 C         139.2869  140.2620  169.9937 C.3     1  UNL1        0.1421
     16 O         139.0030  141.6736  170.4144 O.3     1  UNL1       -0.3538
     17 C         140.4594  143.7093  169.7182 C.3     1  UNL1        0.0346
     18 C         140.1366  142.6157  170.6927 C.3     1  UNL1        0.1422
     19 C         142.9190  137.5568  158.9436 C.3     1  UNL1        0.1747
     20 N         143.3864  138.6471  158.0255 N.pl3   1  UNL1       -0.3093
     21 H         144.1047  138.4694  157.3760 H       1  UNL1        0.1487
     22 C         142.7595  140.0079  158.0969 C.ar    1  UNL1        0.1500
     23 N         141.7547  140.5674  157.1340 N.ar    1  UNL1       -0.1544
     24 N         141.4016  141.9534  157.5859 N.ar    1  UNL1       -0.2476
     25 C         140.4320  142.8798  156.9136 C.3     1  UNL1        0.1537
     26 C         142.1881  142.2505  158.8281 C.ar    1  UNL1        0.0807
     27 C         142.2486  143.4606  159.7123 C.ar    1  UNL1        0.0188
     28 C         143.1483  143.4683  160.9125 C.ar    1  UNL1        0.0054
     29 C         143.9876  142.2659  161.2283 C.ar    1  UNL1        0.0716
     30 C         143.9271  141.0558  160.3441 C.ar    1  UNL1        0.0082
     31 C         143.0274  141.0481  159.1439 C.ar    1  UNL1        0.0503
     32 C         144.8873  142.2736  162.4286 C.3     1  UNL1        0.4186
     33 F         145.7870  142.2812  163.6287 F       1  UNL1       -0.1659
     34 F         144.9364  143.7720  162.3822 F       1  UNL1       -0.1659
     35 F         144.8382  140.7751  162.4749 F       1  UNL1       -0.1659
@<TRIPOS>BOND
     1    17    18    1
     2    18    16    1
     3    16    15    1
     4     9    15    1
     5     9    10    1
     6    10    11    1
     7    11    12    1
     8    12     5    1
     9     5     6    1
    10     6     7    1
    11     7     1    1
    12     1     2   am
    13     2     3    2
    14     2    19    1
    15    19    20    1
    16    20    22    1
    17    22    23   ar
    18    23    24   ar
    19    24    25    1
    20    24    26   ar
    21    26    27   ar
    22    27    28   ar
    23    28    29   ar
    24    29    32    1
    25    32    33    1
    26    32    34    1
    27    32    35    1
    28    29    30   ar
    29    30    31   ar
    30     7     8    1
    31    12    13    1
    32    13    14    1
    33    14     9    1
    34     8     5    1
    35    31    22   ar
    36    31    26   ar
    37     1     4    1
    38    20    21    1
@<TRIPOS>MOLECULE
*****
 35 38 0 0 0
SMALL
GASTEIGER

@<TRIPOS>ATOM
      1 N         141.1283  138.5650  161.1403 N.am    1  UNL1       -0.3018
      2 C         139.8609  138.6141  160.3396 C.2     1  UNL1        0.2425
      3 O         138.5597  138.9340  161.0138 O.2     1  UNL1       -0.2733
      4 H         141.9823  138.3551  160.6978 H       1  UNL1        0.1495
      5 N         141.0467  139.2190  164.7012 N.3     1  UNL1       -0.2711
      6 C         141.0357  137.9847  163.8489 C.3     1  UNL1        0.0933
      7 C         141.0945  138.8360  162.6152 C.3     1  UNL1        0.1035
      8 C         141.1056  140.0702  163.4675 C.3     1  UNL1        0.0933
      9 C         140.9454  140.0318  169.1260 C.3     1  UNL1        0.0297
     10 C         142.2483  139.7234  168.4498 C.3     1  UNL1        0.0039
     11 C         142.2821  139.4525  166.9748 C.3     1  UNL1        0.0160
     12 C         141.0130  139.4899  166.1761 C.3     1  UNL1        0.0576
     13 C         139.7101  139.7983  166.8524 C.3     1  UNL1        0.0160
     14 C         139.6762  140.0692  168.3272 C.3     1  UNL1        0.0039
     15 C         140.9115  140.3027  170.6009 C.3     1  UNL1        0.1421
     16 O         141.1895  141.6837  171.1163 O.3     1  UNL1       -0.3538
     17 C         140.4376  143.6930  169.6509 C.3     1  UNL1        0.0346
     18 C         141.5218  142.7891  170.1584 C.3     1  UNL1        0.1422
     19 C         139.8947  138.3432  158.8646 C.3     1  UNL1        0.1747
     20 N         141.1631  138.5543  158.0921 N.pl3   1  UNL1       -0.3093
     21 H         141.9008  139.0715  158.4890 H       1  UNL1        0.1487
     22 C         141.3074  137.9774  156.7151 C.ar    1  UNL1        0.1500
     23 N         140.7575  138.5669  155.4501 N.ar    1  UNL1       -0.1544
     24 N         141.1373  137.6635  154.3145 N.ar    1  UNL1       -0.2476
     25 C         140.7929  137.8713  152.8694 C.3     1  UNL1        0.1537
     26 C         141.9219  136.5157  154.8776 C.ar    1  UNL1        0.0807
     27 C         142.5541  135.3190  154.2310 C.ar    1  UNL1        0.0188
     28 C         143.2915  134.3163  155.0681 C.ar    1  UNL1        0.0054
     29 C         143.3967  134.5103  156.5518 C.ar    1  UNL1        0.0716
     30 C         142.7644  135.7070  157.1983 C.ar    1  UNL1        0.0082
     31 C         142.0270  136.7097  156.3612 C.ar    1  UNL1        0.0503
     32 C         144.1341  133.5075  157.3889 C.3     1  UNL1        0.4186
     33 F         144.8715  132.5048  158.2260 F       1  UNL1       -0.1659
     34 F         144.6047  132.8147  156.1445 F       1  UNL1       -0.1659
     35 F         143.6636  134.2004  158.6333 F       1  UNL1       -0.1659
@<TRIPOS>BOND
     1    17    18    1
     2    18    16    1
     3    16    15    1
     4     9    15    1
     5     9    10    1
     6    10    11    1
     7    11    12    1
     8    12     5    1
     9     5     6    1
    10     6     7    1
    11     7     1    1
    12     1     2   am
    13     2     3    2
    14     2    19    1
    15    19    20    1
    16    20    22    1
    17    22    23   ar
    18    23    24   ar
    19    24    25    1
    20    24    26   ar
    21    26    27   ar
    22    27    28   ar
    23    28    29   ar
    24    29    32    1
    25    32    33    1
    26    32    34    1
    27    32    35    1
    28    29    30   ar
    29    30    31   ar
    30     7     8    1
    31    12    13    1
    32    13    14    1
    33    14     9    1
    34     8     5    1
    35    31    22   ar
    36    31    26   ar
    37     1     4    1
    38    20    21    1
@<TRIPOS>MOLECULE
*****
 35 38 0 0 0
SMALL
GASTEIGER

@<TRIPOS>ATOM
      1 N         138.5232  139.4253  162.1167 N.am    1  UNL1       -0.3018
      2 C         138.1551  140.4499  161.0848 C.2     1  UNL1        0.2425
      3 O         138.1084  141.9030  161.4539 O.2     1  UNL1       -0.2733
      4 H         138.5538  138.4716  161.8744 H       1  UNL1        0.1495
      5 N         139.2992  140.4603  165.4991 N.3     1  UNL1       -0.2711
      6 C         138.0520  140.4008  164.6679 C.3     1  UNL1        0.0933
      7 C         138.8446  139.8540  163.5177 C.3     1  UNL1        0.1035
      8 C         140.0918  139.9136  164.3489 C.3     1  UNL1        0.0933
      9 C         140.2637  141.7463  169.7022 C.3     1  UNL1        0.0297
     10 C         139.7188  140.3727  169.4445 C.3     1  UNL1        0.0039
     11 C         139.3973  139.9441  168.0435 C.3     1  UNL1        0.0160
     12 C         139.6207  140.8890  166.9002 C.3     1  UNL1        0.0576
     13 C         140.1655  142.2625  167.1578 C.3     1  UNL1        0.0160
     14 C         140.4870  142.6912  168.5588 C.3     1  UNL1        0.0039
     15 C         140.5852  142.1751  171.1032 C.3     1  UNL1        0.1421
     16 O         142.0082  142.4358  171.4998 O.3     1  UNL1       -0.3538
     17 C         143.9991  142.3594  169.8323 C.3     1  UNL1        0.0346
     18 C         142.9352  143.1355  170.5505 C.3     1  UNL1        0.1422
     19 C         137.8336  140.0212  159.6838 C.3     1  UNL1        0.1747
     20 N         138.4100  140.7707  158.5192 N.pl3   1  UNL1       -0.3093
     21 H         139.3757  140.9587  158.4841 H       1  UNL1        0.1487
     22 C         137.5149  141.2336  157.4080 C.ar    1  UNL1        0.1500
     23 N         136.2736  140.5409  156.9292 N.ar    1  UNL1       -0.1544
     24 N         135.6956  141.3497  155.8059 N.ar    1  UNL1       -0.2476
     25 C         134.4518  141.0233  155.0335 C.3     1  UNL1        0.1537
     26 C         136.5797  142.5422  155.5905 C.ar    1  UNL1        0.0807
     27 C         136.5062  143.6840  154.6206 C.ar    1  UNL1        0.0188
     28 C         137.5571  144.7541  154.6410 C.ar    1  UNL1        0.0054
     29 C         138.6815  144.6824  155.6312 C.ar    1  UNL1        0.0716
     30 C         138.7550  143.5405  156.6010 C.ar    1  UNL1        0.0082
     31 C         137.7042  142.4704  156.5807 C.ar    1  UNL1        0.0503
     32 C         139.7324  145.7526  155.6515 C.3     1  UNL1        0.4186
     33 F         140.7833  146.8227  155.6719 F       1  UNL1       -0.1659
     34 F         138.8386  146.6457  154.8432 F       1  UNL1       -0.1659
     35 F         140.6262  144.8595  156.4599 F       1  UNL1       -0.1659
@<TRIPOS>BOND
     1    17    18    1
     2    18    16    1
     3    16    15    1
     4     9    15    1
     5     9    10    1
     6    10    11    1
     7    11    12    1
     8    12     5    1
     9     5     6    1
    10     6     7    1
    11     7     1    1
    12     1     2   am
    13     2     3    2
    14     2    19    1
    15    19    20    1
    16    20    22    1
    17    22    23   ar
    18    23    24   ar
    19    24    25    1
    20    24    26   ar
    21    26    27   ar
    22    27    28   ar
    23    28    29   ar
    24    29    32    1
    25    32    33    1
    26    32    34    1
    27    32    35    1
    28    29    30   ar
    29    30    31   ar
    30     7     8    1
    31    12    13    1
    32    13    14    1
    33    14     9    1
    34     8     5    1
    35    31    22   ar
    36    31    26   ar
    37     1     4    1
    38    20    21    1
@<TRIPOS>MOLECULE
*****
 35 38 0 0 0
SMALL
GASTEIGER

@<TRIPOS>ATOM
      1 N         138.8180  142.0299  160.4004 N.am    1  UNL1       -0.3018
      2 C         138.5272  140.8956  159.4630 C.2     1  UNL1        0.2425
      3 O         138.3947  139.4989  159.9939 O.2     1  UNL1       -0.2733
      4 H         138.9050  142.9465  160.0520 H       1  UNL1        0.1495
      5 N         139.2002  141.3963  163.9454 N.3     1  UNL1       -0.2711
      6 C         140.0312  141.1316  162.7250 C.3     1  UNL1        0.0933
      7 C         138.9763  141.7675  161.8688 C.3     1  UNL1        0.1035
      8 C         138.1454  142.0322  163.0892 C.3     1  UNL1        0.0933
      9 C         139.6751  140.6091  168.3505 C.3     1  UNL1        0.0297
     10 C         140.2441  141.8586  167.7463 C.3     1  UNL1        0.0039
     11 C         140.0858  142.1210  166.2779 C.3     1  UNL1        0.0160
     12 C         139.3585  141.1339  165.4138 C.3     1  UNL1        0.0576
     13 C         138.7895  139.8845  166.0180 C.3     1  UNL1        0.0160
     14 C         138.9478  139.6221  167.4863 C.3     1  UNL1        0.0039
     15 C         139.8333  140.3466  169.8188 C.3     1  UNL1        0.1421
     16 O         140.8068  139.3093  170.2946 O.3     1  UNL1       -0.3538
     17 C         142.8602  139.0033  168.7326 C.3     1  UNL1        0.0346
     18 C         142.2732  139.4788  170.0285 C.3     1  UNL1        0.1422
     19 C         138.3689  141.1580  157.9947 C.3     1  UNL1        0.1747
     20 N         137.5262  140.2434  157.1559 N.pl3   1  UNL1       -0.3093
     21 H         137.5909  139.2681  157.2740 H       1  UNL1        0.1487
     22 C         136.5851  140.8147  156.1371 C.ar    1  UNL1        0.1500
     23 N         136.9689  141.6578  154.9573 N.ar    1  UNL1       -0.1544
     24 N         135.7159  142.0074  154.2103 N.ar    1  UNL1       -0.2476
     25 C         135.6352  142.8382  152.9640 C.3     1  UNL1        0.1537
     26 C         134.5579  141.3803  154.9284 C.ar    1  UNL1        0.0807
     27 C         133.0836  141.3853  154.6519 C.ar    1  UNL1        0.0188
     28 C         132.1466  140.6531  155.5661 C.ar    1  UNL1        0.0054
     29 C         132.6838  139.9160  156.7569 C.ar    1  UNL1        0.0716
     30 C         134.1580  139.9110  157.0335 C.ar    1  UNL1        0.0082
     31 C         135.0951  140.6432  156.1192 C.ar    1  UNL1        0.0503
     32 C         131.7467  139.1838  157.6711 C.3     1  UNL1        0.4186
     33 F         130.8097  138.4516  158.5853 F       1  UNL1       -0.1659
     34 F         130.6730  140.1887  157.3755 F       1  UNL1       -0.1659
     35 F         132.8203  138.1789  157.9668 F       1  UNL1       -0.1659
@<TRIPOS>BOND
     1    17    18    1
     2    18    16    1
     3    16    15    1
     4     9    15    1
     5     9    10    1
     6    10    11    1
     7    11    12    1
     8    12     5    1
     9     5     6    1
    10     6     7    1
    11     7     1    1
    12     1     2   am
    13     2     3    2
    14     2    19    1
    15    19    20    1
    16    20    22    1
    17    22    23   ar
    18    23    24   ar
    19    24    25    1
    20    24    26   ar
    21    26    27   ar
    22    27    28   ar
    23    28    29   ar
    24    29    32    1
    25    32    33    1
    26    32    34    1
    27    32    35    1
    28    29    30   ar
    29    30    31   ar
    30     7     8    1
    31    12    13    1
    32    13    14    1
    33    14     9    1
    34     8     5    1
    35    31    22   ar
    36    31    26   ar
    37     1     4    1
    38    20    21    1
