@<TRIPOS>MOLECULE
*****
 30 31 0 0 0
SMALL
GASTEIGER

@<TRIPOS>ATOM
      1 C         137.6393  140.8363  161.9106 C.3     1  UNL1        0.0703
      2 N         136.8479  141.4320  163.0370 N.3     1  UNL1       -0.2971
      3 H         135.9170  141.6304  162.6702 H       1  UNL1        0.1233
      4 C         137.3252  142.6858  163.7080 C.3     1  UNL1        0.0733
      5 C         137.8308  143.8320  162.8831 C.3     1  UNL1        0.0435
      6 C         142.2577  144.5283  162.4729 C.ar    1  UNL1        0.1724
      7 C         141.6515  144.3352  163.8312 C.ar    1  UNL1        0.0397
      8 C         140.1759  144.1031  163.9680 C.ar    1  UNL1       -0.0009
      9 C         139.3064  144.0641  162.7464 C.ar    1  UNL1       -0.0176
     10 C         139.9126  144.2572  161.3880 C.ar    1  UNL1        0.0358
     11 C         141.3882  144.4893  161.2512 C.ar    1  UNL1        0.1721
     12 C         144.6791  143.5962  162.3393 C.3     1  UNL1        0.2526
     13 O         143.7333  144.7604  162.3361 O.3     1  UNL1       -0.4684
     14 O         141.9943  144.6824  159.8927 O.3     1  UNL1       -0.4684
     15 C         142.5349  143.5041  159.1383 C.3     1  UNL1        0.2526
     16 C         138.1568  139.4324  162.0179 C.3     1  UNL1        0.0383
     17 C         138.5852  138.8907  163.3494 C.3     1  UNL1        0.0911
     18 N         139.0776  139.8239  164.4155 N.am    1  UNL1       -0.3008
     19 C         138.9063  139.4669  165.8624 C.2     1  UNL1        0.2459
     20 O         138.2426  138.1767  166.2430 O.2     1  UNL1       -0.2701
     21 H         139.5132  140.6707  164.1657 H       1  UNL1        0.1497
     22 C         139.3987  140.4001  166.9285 C.ar    1  UNL1        0.0538
     23 C         139.2452  140.0341  168.3750 C.ar    1  UNL1        0.0108
     24 C         139.7377  140.9673  169.4412 C.ar    1  UNL1        0.0754
     25 C         140.3836  142.2665  169.0608 C.ar    1  UNL1        0.2901
     26 C         140.5371  142.6326  167.6142 C.ar    1  UNL1        0.0754
     27 C         140.0446  141.6994  166.5481 C.ar    1  UNL1        0.0108
     28 N         140.8760  143.1997  170.1269 N.pl3   1  UNL1        0.0809
     29 O         140.3087  144.5844  170.2321 O.2     1  UNL1        0.0415
     30 O         141.9356  142.7483  171.0879 O.co2   1  UNL1       -0.5760
@<TRIPOS>UNITY_ATOM_ATTR
28 1
charge 1
30 1
charge -1
@<TRIPOS>BOND
     1    12    13    1
     2    13     6    1
     3     6     7   ar
     4     7     8   ar
     5     8     9   ar
     6     9     5    1
     7     5     4    1
     8     4     2    1
     9     2     1    1
    10     1    16    1
    11    16    17    1
    12    17    18    1
    13    18    19   am
    14    19    20    2
    15    19    22    1
    16    22    23   ar
    17    23    24   ar
    18    24    25   ar
    19    25    28    1
    20    28    29    2
    21    28    30    1
    22    25    26   ar
    23    26    27   ar
    24     9    10   ar
    25    10    11   ar
    26    11    14    1
    27    14    15    1
    28    11     6   ar
    29    27    22   ar
    30     2     3    1
    31    18    21    1
@<TRIPOS>MOLECULE
*****
 30 31 0 0 0
SMALL
GASTEIGER

@<TRIPOS>ATOM
      1 C         140.5311  137.7363  162.4675 C.3     1  UNL1        0.0703
      2 N         141.6297  137.2300  163.3545 N.3     1  UNL1       -0.2971
      3 H         141.5965  136.2114  163.3124 H       1  UNL1        0.1233
      4 C         141.6525  137.6028  164.8073 C.3     1  UNL1        0.0733
      5 C         142.9241  138.0892  165.4370 C.3     1  UNL1        0.0435
      6 C         144.2826  142.3284  164.7789 C.ar    1  UNL1        0.1724
      7 C         143.4258  141.9907  165.9628 C.ar    1  UNL1        0.0397
      8 C         142.9730  140.5776  166.1822 C.ar    1  UNL1       -0.0009
      9 C         143.3769  139.5023  165.2176 C.ar    1  UNL1       -0.0176
     10 C         144.2337  139.8400  164.0336 C.ar    1  UNL1        0.0358
     11 C         144.6865  141.2531  163.8143 C.ar    1  UNL1        0.1721
     12 C         143.7601  144.7760  164.0816 C.3     1  UNL1        0.2526
     13 O         144.7354  143.7415  164.5595 O.3     1  UNL1       -0.4684
     14 O         145.5433  141.5909  162.6302 O.3     1  UNL1       -0.4684
     15 C         144.9393  142.2689  161.4364 C.3     1  UNL1        0.2526
     16 C         139.1134  137.7407  162.9576 C.3     1  UNL1        0.0383
     17 C         138.4077  139.0419  163.1998 C.3     1  UNL1        0.0911
     18 N         138.9355  140.0020  164.2243 N.am    1  UNL1       -0.3008
     19 C         138.8428  139.6675  165.6837 C.2     1  UNL1        0.2459
     20 O         138.2224  138.3730  166.1184 O.2     1  UNL1       -0.2701
     21 H         139.3427  140.8517  163.9389 H       1  UNL1        0.1497
     22 C         139.3706  140.6277  166.7081 C.ar    1  UNL1        0.0538
     23 C         139.5531  140.1830  168.1290 C.ar    1  UNL1        0.0108
     24 C         140.0809  141.1431  169.1535 C.ar    1  UNL1        0.0754
     25 C         140.4262  142.5480  168.7571 C.ar    1  UNL1        0.2901
     26 C         140.2436  142.9927  167.3362 C.ar    1  UNL1        0.0754
     27 C         139.7158  142.0326  166.3117 C.ar    1  UNL1        0.0108
     28 N         140.9539  143.5081  169.7816 N.pl3   1  UNL1        0.0809
     29 O         140.1342  144.6968  170.1879 O.2     1  UNL1        0.0415
     30 O         142.3014  143.2795  170.3998 O.co2   1  UNL1       -0.5760
@<TRIPOS>UNITY_ATOM_ATTR
28 1
charge 1
30 1
charge -1
@<TRIPOS>BOND
     1    12    13    1
     2    13     6    1
     3     6     7   ar
     4     7     8   ar
     5     8     9   ar
     6     9     5    1
     7     5     4    1
     8     4     2    1
     9     2     1    1
    10     1    16    1
    11    16    17    1
    12    17    18    1
    13    18    19   am
    14    19    20    2
    15    19    22    1
    16    22    23   ar
    17    23    24   ar
    18    24    25   ar
    19    25    28    1
    20    28    29    2
    21    28    30    1
    22    25    26   ar
    23    26    27   ar
    24     9    10   ar
    25    10    11   ar
    26    11    14    1
    27    14    15    1
    28    11     6   ar
    29    27    22   ar
    30     2     3    1
    31    18    21    1
@<TRIPOS>MOLECULE
*****
 30 31 0 0 0
SMALL
GASTEIGER

@<TRIPOS>ATOM
      1 C         141.2990  145.2554  162.9629 C.3     1  UNL1        0.0703
      2 N         140.4893  145.0493  164.2088 N.3     1  UNL1       -0.2971
      3 H         140.7966  144.1665  164.6170 H       1  UNL1        0.1233
      4 C         138.9925  144.9919  164.1295 C.3     1  UNL1        0.0733
      5 C         138.2499  143.8612  164.7777 C.3     1  UNL1        0.0435
      6 C         137.9157  139.8938  162.6807 C.ar    1  UNL1        0.1724
      7 C         137.6941  141.1662  161.9180 C.ar    1  UNL1        0.0397
      8 C         137.8056  142.4887  162.6170 C.ar    1  UNL1       -0.0009
      9 C         138.1385  142.5387  164.0787 C.ar    1  UNL1       -0.0176
     10 C         138.3601  141.2663  164.8414 C.ar    1  UNL1        0.0358
     11 C         138.2486  139.9438  164.1424 C.ar    1  UNL1        0.1721
     12 C         139.0029  137.9790  161.3017 C.3     1  UNL1        0.2526
     13 O         137.8043  138.5713  161.9817 O.3     1  UNL1       -0.4684
     14 O         138.4702  138.6713  164.9052 O.3     1  UNL1       -0.4684
     15 C         139.8516  138.0992  165.0245 C.3     1  UNL1        0.2526
     16 C         142.2248  144.1771  162.4832 C.3     1  UNL1        0.0383
     17 C         143.1689  143.5170  163.4439 C.3     1  UNL1        0.0911
     18 N         142.7373  143.2499  164.8555 N.am    1  UNL1       -0.3008
     19 C         142.0215  141.9754  165.1924 C.2     1  UNL1        0.2459
     20 O         141.7372  140.9682  164.1178 O.2     1  UNL1       -0.2701
     21 H         142.9239  143.9109  165.5607 H       1  UNL1        0.1497
     22 C         141.5899  141.7083  166.6039 C.ar    1  UNL1        0.0538
     23 C         141.9617  140.4169  167.2702 C.ar    1  UNL1        0.0108
     24 C         141.5302  140.1497  168.6817 C.ar    1  UNL1        0.0754
     25 C         140.7268  141.1740  169.4270 C.ar    1  UNL1        0.2901
     26 C         140.3549  142.4655  168.7607 C.ar    1  UNL1        0.0754
     27 C         140.7865  142.7326  167.3492 C.ar    1  UNL1        0.0108
     28 N         140.2952  140.9068  170.8385 N.pl3   1  UNL1        0.0809
     29 O         140.5035  141.9496  171.8965 O.2     1  UNL1        0.0415
     30 O         139.6555  139.5970  171.1920 O.co2   1  UNL1       -0.5760
@<TRIPOS>UNITY_ATOM_ATTR
28 1
charge 1
30 1
charge -1
@<TRIPOS>BOND
     1    12    13    1
     2    13     6    1
     3     6     7   ar
     4     7     8   ar
     5     8     9   ar
     6     9     5    1
     7     5     4    1
     8     4     2    1
     9     2     1    1
    10     1    16    1
    11    16    17    1
    12    17    18    1
    13    18    19   am
    14    19    20    2
    15    19    22    1
    16    22    23   ar
    17    23    24   ar
    18    24    25   ar
    19    25    28    1
    20    28    29    2
    21    28    30    1
    22    25    26   ar
    23    26    27   ar
    24     9    10   ar
    25    10    11   ar
    26    11    14    1
    27    14    15    1
    28    11     6   ar
    29    27    22   ar
    30     2     3    1
    31    18    21    1
@<TRIPOS>MOLECULE
*****
 30 31 0 0 0
SMALL
GASTEIGER

@<TRIPOS>ATOM
      1 C         138.2388  138.8857  161.8821 C.3     1  UNL1        0.0703
      2 N         138.7947  137.6402  162.5065 N.3     1  UNL1       -0.2971
      3 H         138.0637  136.9310  162.4500 H       1  UNL1        0.1233
      4 C         139.2682  137.6617  163.9296 C.3     1  UNL1        0.0733
      5 C         140.5978  137.0662  164.2867 C.3     1  UNL1        0.0435
      6 C         144.3214  139.5838  164.0727 C.ar    1  UNL1        0.1724
      7 C         143.7013  139.2735  165.4028 C.ar    1  UNL1        0.0397
      8 C         142.4600  138.4343  165.4741 C.ar    1  UNL1       -0.0009
      9 C         141.8390  137.9054  164.2154 C.ar    1  UNL1       -0.0176
     10 C         142.4591  138.2157  162.8853 C.ar    1  UNL1        0.0358
     11 C         143.7003  139.0549  162.8140 C.ar    1  UNL1        0.1721
     12 C         145.4542  141.9167  163.9157 C.3     1  UNL1        0.2526
     13 O         145.5626  140.4231  164.0014 O.3     1  UNL1       -0.4684
     14 O         144.3204  139.3652  161.4838 O.3     1  UNL1       -0.4684
     15 C         143.5253  139.1835  160.2250 C.3     1  UNL1        0.2526
     16 C         139.1445  140.0436  161.5837 C.3     1  UNL1        0.0383
     17 C         139.1150  141.2632  162.4565 C.3     1  UNL1        0.0911
     18 N         139.0649  141.1167  163.9485 N.am    1  UNL1       -0.3008
     19 C         140.2846  141.4070  164.7720 C.2     1  UNL1        0.2459
     20 O         141.5543  141.8439  164.1036 O.2     1  UNL1       -0.2701
     21 H         138.2315  140.8299  164.3873 H       1  UNL1        0.1497
     22 C         140.2345  141.2605  166.2640 C.ar    1  UNL1        0.0538
     23 C         140.8969  142.2817  167.1406 C.ar    1  UNL1        0.0108
     24 C         140.8468  142.1352  168.6326 C.ar    1  UNL1        0.0754
     25 C         140.1342  140.9675  169.2480 C.ar    1  UNL1        0.2901
     26 C         139.4717  139.9463  168.3714 C.ar    1  UNL1        0.0754
     27 C         139.5218  140.0928  166.8794 C.ar    1  UNL1        0.0108
     28 N         140.0841  140.8210  170.7400 N.pl3   1  UNL1        0.0809
     29 O         140.6321  141.9060  171.6190 O.2     1  UNL1        0.0415
     30 O         139.4860  139.5896  171.3530 O.co2   1  UNL1       -0.5760
@<TRIPOS>UNITY_ATOM_ATTR
28 1
charge 1
30 1
charge -1
@<TRIPOS>BOND
     1    12    13    1
     2    13     6    1
     3     6     7   ar
     4     7     8   ar
     5     8     9   ar
     6     9     5    1
     7     5     4    1
     8     4     2    1
     9     2     1    1
    10     1    16    1
    11    16    17    1
    12    17    18    1
    13    18    19   am
    14    19    20    2
    15    19    22    1
    16    22    23   ar
    17    23    24   ar
    18    24    25   ar
    19    25    28    1
    20    28    29    2
    21    28    30    1
    22    25    26   ar
    23    26    27   ar
    24     9    10   ar
    25    10    11   ar
    26    11    14    1
    27    14    15    1
    28    11     6   ar
    29    27    22   ar
    30     2     3    1
    31    18    21    1
@<TRIPOS>MOLECULE
*****
 30 31 0 0 0
SMALL
GASTEIGER

@<TRIPOS>ATOM
      1 C         144.0314  139.3189  162.1687 C.3     1  UNL1        0.0703
      2 N         144.8612  139.7727  163.3331 N.3     1  UNL1       -0.2971
      3 H         144.3503  139.5143  164.1772 H       1  UNL1        0.1233
      4 C         145.2268  141.2206  163.4743 C.3     1  UNL1        0.0733
      5 C         144.5588  142.0643  164.5192 C.3     1  UNL1        0.0435
      6 C         141.0230  144.6229  163.4229 C.ar    1  UNL1        0.1724
      7 C         142.3650  145.2543  163.6469 C.ar    1  UNL1        0.0397
      8 C         143.5436  144.4015  164.0124 C.ar    1  UNL1       -0.0009
      9 C         143.3802  142.9172  164.1538 C.ar    1  UNL1       -0.0176
     10 C         142.0382  142.2857  163.9297 C.ar    1  UNL1        0.0358
     11 C         140.8596  143.1385  163.5643 C.ar    1  UNL1        0.1721
     12 C         139.8111  146.1819  161.7345 C.3     1  UNL1        0.2526
     13 O         139.8444  145.4757  163.0574 O.3     1  UNL1       -0.4684
     14 O         139.5175  142.5070  163.3402 O.3     1  UNL1       -0.4684
     15 C         138.4602  142.5963  164.4005 C.3     1  UNL1        0.2526
     16 C         142.6039  138.9094  162.3794 C.3     1  UNL1        0.0383
     17 C         142.1855  138.2898  163.6798 C.3     1  UNL1        0.0911
     18 N         141.6790  139.1561  164.7947 N.am    1  UNL1       -0.3008
     19 C         142.5103  139.3541  166.0275 C.2     1  UNL1        0.2459
     20 O         143.8480  138.6860  166.1454 O.2     1  UNL1       -0.2701
     21 H         140.8009  139.5946  164.7174 H       1  UNL1        0.1497
     22 C         142.0037  140.2204  167.1425 C.ar    1  UNL1        0.0538
     23 C         140.6210  140.0120  167.6852 C.ar    1  UNL1        0.0108
     24 C         140.1145  140.8783  168.8001 C.ar    1  UNL1        0.0754
     25 C         140.9907  141.9529  169.3723 C.ar    1  UNL1        0.2901
     26 C         142.3735  142.1613  168.8296 C.ar    1  UNL1        0.0754
     27 C         142.8800  141.2950  167.7146 C.ar    1  UNL1        0.0108
     28 N         140.4842  142.8191  170.4872 N.pl3   1  UNL1        0.0809
     29 O         140.3697  142.2636  171.8759 O.2     1  UNL1        0.0415
     30 O         140.0921  144.2408  170.2135 O.co2   1  UNL1       -0.5760
@<TRIPOS>UNITY_ATOM_ATTR
28 1
charge 1
30 1
charge -1
@<TRIPOS>BOND
     1    12    13    1
     2    13     6    1
     3     6     7   ar
     4     7     8   ar
     5     8     9   ar
     6     9     5    1
     7     5     4    1
     8     4     2    1
     9     2     1    1
    10     1    16    1
    11    16    17    1
    12    17    18    1
    13    18    19   am
    14    19    20    2
    15    19    22    1
    16    22    23   ar
    17    23    24   ar
    18    24    25   ar
    19    25    28    1
    20    28    29    2
    21    28    30    1
    22    25    26   ar
    23    26    27   ar
    24     9    10   ar
    25    10    11   ar
    26    11    14    1
    27    14    15    1
    28    11     6   ar
    29    27    22   ar
    30     2     3    1
    31    18    21    1
@<TRIPOS>MOLECULE
*****
 30 31 0 0 0
SMALL
GASTEIGER

@<TRIPOS>ATOM
      1 C         140.3160  137.8515  161.9103 C.3     1  UNL1        0.0703
      2 N         139.9429  139.2204  161.4235 N.3     1  UNL1       -0.2971
      3 H         139.7754  139.7919  162.2517 H       1  UNL1        0.1233
      4 C         138.7542  139.3993  160.5263 C.3     1  UNL1        0.0733
      5 C         137.6267  140.2955  160.9449 C.3     1  UNL1        0.0435
      6 C         138.4471  143.8846  163.5325 C.ar    1  UNL1        0.1724
      7 C         137.7769  142.6764  164.1165 C.ar    1  UNL1        0.0397
      8 C         137.5034  141.4801  163.2540 C.ar    1  UNL1       -0.0009
      9 C         137.9002  141.4919  161.8075 C.ar    1  UNL1       -0.0176
     10 C         138.5704  142.7001  161.2235 C.ar    1  UNL1        0.0358
     11 C         138.8438  143.8964  162.0860 C.ar    1  UNL1        0.1721
     12 C         138.3871  145.0435  165.8570 C.3     1  UNL1        0.2526
     13 O         138.7205  145.0809  164.3951 O.3     1  UNL1       -0.4684
     14 O         139.5141  145.1046  161.5020 O.3     1  UNL1       -0.4684
     15 C         140.2381  145.0011  160.1924 C.3     1  UNL1        0.2526
     16 C         140.0558  137.4658  163.3363 C.3     1  UNL1        0.0383
     17 C         138.8199  137.9544  164.0318 C.3     1  UNL1        0.0911
     18 N         138.9269  138.6200  165.3717 N.am    1  UNL1       -0.3008
     19 C         139.7664  139.8528  165.5319 C.2     1  UNL1        0.2459
     20 O         140.4989  140.4198  164.3522 O.2     1  UNL1       -0.2701
     21 H         138.4461  138.2479  166.1461 H       1  UNL1        0.1497
     22 C         139.8734  140.5184  166.8719 C.ar    1  UNL1        0.0538
     23 C         140.4485  141.8996  166.9794 C.ar    1  UNL1        0.0108
     24 C         140.5555  142.5652  168.3194 C.ar    1  UNL1        0.0754
     25 C         140.0874  141.8497  169.5518 C.ar    1  UNL1        0.2901
     26 C         139.5123  140.4684  169.4443 C.ar    1  UNL1        0.0754
     27 C         139.4053  139.8028  168.1043 C.ar    1  UNL1        0.0108
     28 N         140.1944  142.5153  170.8917 N.pl3   1  UNL1        0.0809
     29 O         139.0682  143.3670  171.3982 O.2     1  UNL1        0.0415
     30 O         141.4275  142.3293  171.7253 O.co2   1  UNL1       -0.5760
@<TRIPOS>UNITY_ATOM_ATTR
28 1
charge 1
30 1
charge -1
@<TRIPOS>BOND
     1    12    13    1
     2    13     6    1
     3     6     7   ar
     4     7     8   ar
     5     8     9   ar
     6     9     5    1
     7     5     4    1
     8     4     2    1
     9     2     1    1
    10     1    16    1
    11    16    17    1
    12    17    18    1
    13    18    19   am
    14    19    20    2
    15    19    22    1
    16    22    23   ar
    17    23    24   ar
    18    24    25   ar
    19    25    28    1
    20    28    29    2
    21    28    30    1
    22    25    26   ar
    23    26    27   ar
    24     9    10   ar
    25    10    11   ar
    26    11    14    1
    27    14    15    1
    28    11     6   ar
    29    27    22   ar
    30     2     3    1
    31    18    21    1
@<TRIPOS>MOLECULE
*****
 30 31 0 0 0
SMALL
GASTEIGER

@<TRIPOS>ATOM
      1 C         137.6504  140.7185  161.9301 C.3     1  UNL1        0.0703
      2 N         137.0567  141.5167  163.0528 N.3     1  UNL1       -0.2971
      3 H         136.0489  141.5393  162.8973 H       1  UNL1        0.1233
      4 C         137.4922  142.9345  163.2771 C.3     1  UNL1        0.0733
      5 C         138.6195  143.2325  164.2206 C.3     1  UNL1        0.0435
      6 C         142.8405  143.4703  162.6792 C.ar    1  UNL1        0.1724
      7 C         142.0686  144.7278  162.9487 C.ar    1  UNL1        0.0397
      8 C         140.6615  144.6485  163.4625 C.ar    1  UNL1       -0.0009
      9 C         140.0265  143.3117  163.7068 C.ar    1  UNL1       -0.0176
     10 C         140.7985  142.0543  163.4373 C.ar    1  UNL1        0.0358
     11 C         142.2055  142.1335  162.9234 C.ar    1  UNL1        0.1721
     12 C         144.6039  142.9151  160.8537 C.3     1  UNL1        0.2526
     13 O         144.2476  143.5496  162.1653 O.3     1  UNL1       -0.4684
     14 O         142.9775  140.8759  162.6539 O.3     1  UNL1       -0.4684
     15 C         143.2971  139.9365  163.7787 C.3     1  UNL1        0.2526
     16 C         138.4558  139.4887  162.2283 C.3     1  UNL1        0.0383
     17 C         138.3754  138.8497  163.5829 C.3     1  UNL1        0.0911
     18 N         138.4973  139.6922  164.8180 N.am    1  UNL1       -0.3008
     19 C         139.6173  139.4473  165.7854 C.2     1  UNL1        0.2459
     20 O         140.6153  138.3599  165.5178 O.2     1  UNL1       -0.2701
     21 H         137.8423  140.4058  164.9937 H       1  UNL1        0.1497
     22 C         139.7392  140.2897  167.0205 C.ar    1  UNL1        0.0538
     23 C         140.4385  141.6152  166.9582 C.ar    1  UNL1        0.0108
     24 C         140.5604  142.4577  168.1933 C.ar    1  UNL1        0.0754
     25 C         139.9829  141.9747  169.4906 C.ar    1  UNL1        0.2901
     26 C         139.2836  140.6491  169.5530 C.ar    1  UNL1        0.0754
     27 C         139.1617  139.8066  168.3179 C.ar    1  UNL1        0.0108
     28 N         140.1048  142.8171  170.7257 N.pl3   1  UNL1        0.0809
     29 O         140.5540  142.1967  172.0155 O.2     1  UNL1        0.0415
     30 O         139.7775  144.2799  170.6711 O.co2   1  UNL1       -0.5760
@<TRIPOS>UNITY_ATOM_ATTR
28 1
charge 1
30 1
charge -1
@<TRIPOS>BOND
     1    12    13    1
     2    13     6    1
     3     6     7   ar
     4     7     8   ar
     5     8     9   ar
     6     9     5    1
     7     5     4    1
     8     4     2    1
     9     2     1    1
    10     1    16    1
    11    16    17    1
    12    17    18    1
    13    18    19   am
    14    19    20    2
    15    19    22    1
    16    22    23   ar
    17    23    24   ar
    18    24    25   ar
    19    25    28    1
    20    28    29    2
    21    28    30    1
    22    25    26   ar
    23    26    27   ar
    24     9    10   ar
    25    10    11   ar
    26    11    14    1
    27    14    15    1
    28    11     6   ar
    29    27    22   ar
    30     2     3    1
    31    18    21    1
@<TRIPOS>MOLECULE
*****
 30 31 0 0 0
SMALL
GASTEIGER

@<TRIPOS>ATOM
      1 C         142.9817  144.4075  162.5593 C.3     1  UNL1        0.0703
      2 N         142.2446  145.0691  163.6859 N.3     1  UNL1       -0.2971
      3 H         142.7537  144.8470  164.5415 H       1  UNL1        0.1233
      4 C         140.8047  144.7336  163.9394 C.3     1  UNL1        0.0733
      5 C         140.4450  143.6945  164.9595 C.3     1  UNL1        0.0435
      6 C         138.9804  139.6515  163.6330 C.ar    1  UNL1        0.1724
      7 C         138.1583  140.4730  164.5813 C.ar    1  UNL1        0.0397
      8 C         138.6465  141.8207  165.0234 C.ar    1  UNL1       -0.0009
      9 C         139.9568  142.3468  164.5173 C.ar    1  UNL1       -0.0176
     10 C         140.7789  141.5253  163.5690 C.ar    1  UNL1        0.0358
     11 C         140.2907  140.1777  163.1269 C.ar    1  UNL1        0.1721
     12 C         137.8825  138.1362  161.8307 C.3     1  UNL1        0.2526
     13 O         138.4922  138.3039  163.1908 O.3     1  UNL1       -0.4684
     14 O         141.1129  139.3562  162.1786 O.3     1  UNL1       -0.4684
     15 C         141.9743  138.2451  162.7015 C.3     1  UNL1        0.2526
     16 C         143.9361  143.2858  162.8438 C.3     1  UNL1        0.0383
     17 C         144.6601  143.2318  164.1564 C.3     1  UNL1        0.0911
     18 N         143.8907  143.0426  165.4301 N.am    1  UNL1       -0.3008
     19 C         143.4950  141.6641  165.8696 C.2     1  UNL1        0.2459
     20 O         143.8688  140.4748  165.0355 O.2     1  UNL1       -0.2701
     21 H         143.6454  143.8232  165.9776 H       1  UNL1        0.1497
     22 C         142.7256  141.4749  167.1433 C.ar    1  UNL1        0.0538
     23 C         141.5909  140.4954  167.1957 C.ar    1  UNL1        0.0108
     24 C         140.8215  140.3062  168.4693 C.ar    1  UNL1        0.0754
     25 C         141.1868  141.0967  169.6907 C.ar    1  UNL1        0.2901
     26 C         142.3216  142.0763  169.6384 C.ar    1  UNL1        0.0754
     27 C         143.0910  142.2655  168.3647 C.ar    1  UNL1        0.0108
     28 N         140.4174  140.9075  170.9643 N.pl3   1  UNL1        0.0809
     29 O         140.4593  141.9628  172.0296 O.2     1  UNL1        0.0415
     30 O         139.6062  139.6632  171.1728 O.co2   1  UNL1       -0.5760
@<TRIPOS>UNITY_ATOM_ATTR
28 1
charge 1
30 1
charge -1
@<TRIPOS>BOND
     1    12    13    1
     2    13     6    1
     3     6     7   ar
     4     7     8   ar
     5     8     9   ar
     6     9     5    1
     7     5     4    1
     8     4     2    1
     9     2     1    1
    10     1    16    1
    11    16    17    1
    12    17    18    1
    13    18    19   am
    14    19    20    2
    15    19    22    1
    16    22    23   ar
    17    23    24   ar
    18    24    25   ar
    19    25    28    1
    20    28    29    2
    21    28    30    1
    22    25    26   ar
    23    26    27   ar
    24     9    10   ar
    25    10    11   ar
    26    11    14    1
    27    14    15    1
    28    11     6   ar
    29    27    22   ar
    30     2     3    1
    31    18    21    1
@<TRIPOS>MOLECULE
*****
 30 31 0 0 0
SMALL
GASTEIGER

@<TRIPOS>ATOM
      1 C         141.5714  140.9205  170.8980 C.3     1  UNL1        0.0703
      2 N         143.0364  140.9555  170.5776 N.3     1  UNL1       -0.2971
      3 H         143.5298  141.0500  171.4653 H       1  UNL1        0.1233
      4 C         143.5795  142.0150  169.6653 C.3     1  UNL1        0.0733
      5 C         142.7896  142.4495  168.4665 C.3     1  UNL1        0.0435
      6 C         143.4589  140.4562  164.4879 C.ar    1  UNL1        0.1724
      7 C         142.8512  139.6837  165.6210 C.ar    1  UNL1        0.0397
      8 C         142.6281  140.3481  166.9472 C.ar    1  UNL1       -0.0009
      9 C         143.0127  141.7851  167.1403 C.ar    1  UNL1       -0.0176
     10 C         143.6204  142.5575  166.0072 C.ar    1  UNL1        0.0358
     11 C         143.8435  141.8931  164.6810 C.ar    1  UNL1        0.1721
     12 C         143.0826  138.4445  162.8876 C.3     1  UNL1        0.2526
     13 O         143.6821  139.7918  163.1617 O.3     1  UNL1       -0.4684
     14 O         144.4513  142.6657  163.5479 O.3     1  UNL1       -0.4684
     15 C         143.9817  144.0595  163.2535 C.3     1  UNL1        0.2526
     16 C         140.6886  139.8888  170.2607 C.3     1  UNL1        0.0383
     17 C         139.4797  140.3142  169.4812 C.3     1  UNL1        0.0911
     18 N         139.4781  140.2121  167.9847 N.am    1  UNL1       -0.3008
     19 C         138.5002  139.3071  167.2957 C.2     1  UNL1        0.2459
     20 O         137.5240  138.5041  168.1033 O.2     1  UNL1       -0.2701
     21 H         140.1189  140.7392  167.4547 H       1  UNL1        0.1497
     22 C         138.4986  139.2050  165.7992 C.ar    1  UNL1        0.0538
     23 C         138.9665  137.9453  165.1328 C.ar    1  UNL1        0.0108
     24 C         138.9649  137.8433  163.6363 C.ar    1  UNL1        0.0754
     25 C         138.4953  139.0010  162.8062 C.ar    1  UNL1        0.2901
     26 C         138.0273  140.2608  163.4725 C.ar    1  UNL1        0.0754
     27 C         138.0289  140.3628  164.9690 C.ar    1  UNL1        0.0108
     28 N         138.4937  138.8989  161.3096 N.pl3   1  UNL1        0.0809
     29 O         137.5768  139.7670  160.4997 O.2     1  UNL1        0.0415
     30 O         139.4089  137.9289  160.6230 O.co2   1  UNL1       -0.5760
@<TRIPOS>UNITY_ATOM_ATTR
28 1
charge 1
30 1
charge -1
@<TRIPOS>BOND
     1    12    13    1
     2    13     6    1
     3     6     7   ar
     4     7     8   ar
     5     8     9   ar
     6     9     5    1
     7     5     4    1
     8     4     2    1
     9     2     1    1
    10     1    16    1
    11    16    17    1
    12    17    18    1
    13    18    19   am
    14    19    20    2
    15    19    22    1
    16    22    23   ar
    17    23    24   ar
    18    24    25   ar
    19    25    28    1
    20    28    29    2
    21    28    30    1
    22    25    26   ar
    23    26    27   ar
    24     9    10   ar
    25    10    11   ar
    26    11    14    1
    27    14    15    1
    28    11     6   ar
    29    27    22   ar
    30     2     3    1
    31    18    21    1
