@<TRIPOS>MOLECULE
*****
 35 39 0 0 0
SMALL
GASTEIGER

@<TRIPOS>ATOM
      1 C         143.0219  138.8234  159.2894 C.ar    1  UNL1        0.0503
      2 C         143.8039  138.7485  160.5672 C.ar    1  UNL1        0.0143
      3 C         144.2909  140.0065  161.2233 C.ar    1  UNL1       -0.0029
      4 C         143.9959  141.3393  160.6016 C.ar    1  UNL1       -0.0208
      5 C         143.2139  141.4142  159.3238 C.ar    1  UNL1       -0.0029
      6 C         142.7269  140.1562  158.6677 C.ar    1  UNL1        0.0143
      7 C         142.9985  137.2126  157.2511 C.2     1  UNL1        0.2313
      8 O         143.9491  138.1175  156.5250 O.2     1  UNL1       -0.2744
      9 N         142.5348  137.5655  158.6333 N.am    1  UNL1       -0.2836
     10 H         141.9109  136.9715  159.1098 H       1  UNL1        0.1549
     11 C         144.6949  131.1885  157.7753 C.3     1  UNL1        0.0594
     12 C         143.8899  132.3339  157.2366 C.ar    1  UNL1        0.0879
     13 N         144.0426  133.7761  157.6197 N.ar    1  UNL1       -0.2469
     14 C         143.0380  134.5716  156.8401 C.ar    1  UNL1        0.0695
     15 C         142.2643  133.6211  155.9752 C.ar    1  UNL1        0.0224
     16 S         142.7909  132.2381  156.2203 S.2     1  UNL1       -0.0755
     17 C         141.2597  134.4167  155.1956 C.3     1  UNL1        0.0351
     18 C         141.4125  135.8589  155.5787 C.3     1  UNL1        0.0204
     19 C         142.5114  135.9547  156.5950 C.3     1  UNL1        0.1173
     20 C         144.4829  142.5972  161.2577 C.3     1  UNL1        0.0420
     21 C         143.5593  143.3937  162.1309 C.3     1  UNL1        0.0585
     22 C         143.9159  144.6397  162.8860 C.3     1  UNL1        0.0175
     23 C         142.6939  145.1001  163.6241 C.3     1  UNL1        0.0199
     24 C         141.5821  144.1387  163.3251 C.3     1  UNL1        0.0856
     25 N         142.1169  143.0841  162.4022 N.3     1  UNL1       -0.2971
     26 H         141.5912  143.0900  161.5281 H       1  UNL1        0.1233
     27 C         140.1813  144.2180  163.8558 C.3     1  UNL1        0.1484
     28 O         139.7236  145.4469  164.5839 O.3     1  UNL1       -0.3786
     29 H         140.4500  146.0886  164.6236 H       1  UNL1        0.2108
     30 C         139.2383  143.0683  163.6583 C.ar    1  UNL1        0.0247
     31 C         139.2268  141.9312  164.6365 C.ar    1  UNL1        0.0012
     32 C         138.2838  140.7815  164.4391 C.ar    1  UNL1        0.0204
     33 C         137.3523  140.7689  163.2635 C.ar    1  UNL1        0.0989
     34 N         137.3638  141.9060  162.2854 N.ar    1  UNL1       -0.2426
     35 C         138.3068  143.0557  162.4828 C.ar    1  UNL1        0.0969
@<TRIPOS>BOND
     1    11    12    1
     2    12    13   ar
     3    13    14   ar
     4    14    15   ar
     5    15    16   ar
     6    15    17    1
     7    17    18    1
     8    18    19    1
     9    19     7    1
    10     7     8    2
    11     7     9   am
    12     9     1    1
    13     1     2   ar
    14     2     3   ar
    15     3     4   ar
    16     4    20    1
    17    21    20    1
    18    21    22    1
    19    22    23    1
    20    24    23    1
    21    24    27    1
    22    27    28    1
    23    27    30    1
    24    30    31   ar
    25    31    32   ar
    26    32    33   ar
    27    33    34   ar
    28    34    35   ar
    29    24    25    1
    30     4     5   ar
    31     5     6   ar
    32    16    12   ar
    33     6     1   ar
    34    19    14    1
    35    25    21    1
    36    35    30   ar
    37     9    10    1
    38    28    29    1
    39    25    26    1
@<TRIPOS>MOLECULE
*****
 35 39 0 0 0
SMALL
GASTEIGER

@<TRIPOS>ATOM
      1 C         138.5360  139.9172  160.0511 C.ar    1  UNL1        0.0503
      2 C         138.5659  140.9623  161.1266 C.ar    1  UNL1        0.0143
      3 C         139.2664  140.6840  162.4235 C.ar    1  UNL1       -0.0029
      4 C         139.9370  139.3606  162.6448 C.ar    1  UNL1       -0.0208
      5 C         139.9071  138.3155  161.5692 C.ar    1  UNL1       -0.0029
      6 C         139.2066  138.5939  160.2724 C.ar    1  UNL1        0.0143
      7 C         138.6264  140.3169  157.4855 C.2     1  UNL1        0.2313
      8 O         140.1179  140.1601  157.5137 O.2     1  UNL1       -0.2744
      9 N         137.8354  140.1955  158.7542 N.am    1  UNL1       -0.2836
     10 H         136.8565  140.2984  158.7357 H       1  UNL1        0.1549
     11 C         132.5606  140.6498  155.8927 C.3     1  UNL1        0.0594
     12 C         134.0385  140.7062  155.6425 C.ar    1  UNL1        0.0879
     13 N         135.1147  140.4879  156.6644 N.ar    1  UNL1       -0.2469
     14 C         136.4411  140.6376  155.9801 C.ar    1  UNL1        0.0695
     15 C         136.1847  140.9484  154.5352 C.ar    1  UNL1        0.0224
     16 S         134.6998  140.9909  154.3266 S.2     1  UNL1       -0.0755
     17 C         137.5111  141.0981  153.8509 C.3     1  UNL1        0.0351
     18 C         138.5871  140.8798  154.8727 C.3     1  UNL1        0.0204
     19 C         137.9259  140.5951  156.1886 C.3     1  UNL1        0.1173
     20 C         140.6376  139.0824  163.9417 C.3     1  UNL1        0.0420
     21 C         139.8812  139.1611  165.2346 C.3     1  UNL1        0.0585
     22 C         138.5202  138.5871  165.4962 C.3     1  UNL1        0.0175
     23 C         138.1509  138.8988  166.9162 C.3     1  UNL1        0.0199
     24 C         139.2836  139.6654  167.5322 C.3     1  UNL1        0.0856
     25 N         140.3530  139.8274  166.4929 N.3     1  UNL1       -0.2971
     26 H         141.2166  139.3895  166.8137 H       1  UNL1        0.1233
     27 C         139.3374  140.1795  168.9403 C.3     1  UNL1        0.1484
     28 O         138.2705  139.7928  169.9213 O.3     1  UNL1       -0.3786
     29 H         137.6272  139.2113  169.4867 H       1  UNL1        0.2108
     30 C         140.4580  141.0804  169.3674 C.ar    1  UNL1        0.0247
     31 C         140.2253  142.5565  169.4986 C.ar    1  UNL1        0.0012
     32 C         141.3460  143.4574  169.9258 C.ar    1  UNL1        0.0204
     33 C         142.6994  142.8824  170.2217 C.ar    1  UNL1        0.0989
     34 N         142.9321  141.4064  170.0905 N.ar    1  UNL1       -0.2426
     35 C         141.8114  140.5054  169.6634 C.ar    1  UNL1        0.0969
@<TRIPOS>BOND
     1    11    12    1
     2    12    13   ar
     3    13    14   ar
     4    14    15   ar
     5    15    16   ar
     6    15    17    1
     7    17    18    1
     8    18    19    1
     9    19     7    1
    10     7     8    2
    11     7     9   am
    12     9     1    1
    13     1     2   ar
    14     2     3   ar
    15     3     4   ar
    16     4    20    1
    17    21    20    1
    18    21    22    1
    19    22    23    1
    20    24    23    1
    21    24    27    1
    22    27    28    1
    23    27    30    1
    24    30    31   ar
    25    31    32   ar
    26    32    33   ar
    27    33    34   ar
    28    34    35   ar
    29    24    25    1
    30     4     5   ar
    31     5     6   ar
    32    16    12   ar
    33     6     1   ar
    34    19    14    1
    35    25    21    1
    36    35    30   ar
    37     9    10    1
    38    28    29    1
    39    25    26    1
@<TRIPOS>MOLECULE
*****
 35 39 0 0 0
SMALL
GASTEIGER

@<TRIPOS>ATOM
      1 C         143.0480  138.0012  161.8261 C.ar    1  UNL1        0.0503
      2 C         144.0859  138.9631  162.3237 C.ar    1  UNL1        0.0143
      3 C         143.9103  139.6340  163.6538 C.ar    1  UNL1       -0.0029
      4 C         142.6970  139.3430  164.4863 C.ar    1  UNL1       -0.0208
      5 C         141.6591  138.3811  163.9888 C.ar    1  UNL1       -0.0029
      6 C         141.8347  137.7102  162.6586 C.ar    1  UNL1        0.0143
      7 C         142.5553  137.8947  159.2774 C.2     1  UNL1        0.2313
      8 O         141.7116  139.1299  159.3889 O.2     1  UNL1       -0.2744
      9 N         143.2235  137.3303  160.4960 N.am    1  UNL1       -0.2836
     10 H         143.7773  136.5196  160.4229 H       1  UNL1        0.1549
     11 C         144.3695  132.1169  157.6136 C.3     1  UNL1        0.0594
     12 C         143.9080  133.5226  157.3664 C.ar    1  UNL1        0.0879
     13 N         143.6087  134.5500  158.4175 N.ar    1  UNL1       -0.2469
     14 C         143.1805  135.8100  157.7255 C.ar    1  UNL1        0.0695
     15 C         143.2150  135.5613  156.2466 C.ar    1  UNL1        0.0224
     16 S         143.6646  134.1476  156.0248 S.2     1  UNL1       -0.0755
     17 C         142.7867  136.8213  155.5546 C.3     1  UNL1        0.0351
     18 C         142.4875  137.8487  156.6057 C.3     1  UNL1        0.0204
     19 C         142.7308  137.2238  157.9473 C.3     1  UNL1        0.1173
     20 C         142.5215  140.0139  165.8164 C.3     1  UNL1        0.0420
     21 C         141.6369  141.2192  165.9376 C.3     1  UNL1        0.0585
     22 C         141.0390  141.7499  167.2068 C.3     1  UNL1        0.0175
     23 C         140.2274  142.9641  166.8644 C.3     1  UNL1        0.0199
     24 C         140.3237  143.1837  165.3837 C.3     1  UNL1        0.0856
     25 N         141.1948  142.1052  164.8109 N.3     1  UNL1       -0.2971
     26 H         142.0085  142.5215  164.3582 H       1  UNL1        0.1233
     27 C         139.6646  144.2878  164.6114 C.3     1  UNL1        0.1484
     28 O         138.8846  145.3462  165.3336 O.3     1  UNL1       -0.3786
     29 H         138.9059  145.1695  166.2871 H       1  UNL1        0.2108
     30 C         139.7855  144.3336  163.1170 C.ar    1  UNL1        0.0247
     31 C         140.8526  145.1707  162.4762 C.ar    1  UNL1        0.0012
     32 C         140.9735  145.2165  160.9818 C.ar    1  UNL1        0.0204
     33 C         140.0274  144.4253  160.1281 C.ar    1  UNL1        0.0989
     34 N         138.9603  143.5882  160.7690 N.ar    1  UNL1       -0.2426
     35 C         138.8394  143.5424  162.2634 C.ar    1  UNL1        0.0969
@<TRIPOS>BOND
     1    11    12    1
     2    12    13   ar
     3    13    14   ar
     4    14    15   ar
     5    15    16   ar
     6    15    17    1
     7    17    18    1
     8    18    19    1
     9    19     7    1
    10     7     8    2
    11     7     9   am
    12     9     1    1
    13     1     2   ar
    14     2     3   ar
    15     3     4   ar
    16     4    20    1
    17    21    20    1
    18    21    22    1
    19    22    23    1
    20    24    23    1
    21    24    27    1
    22    27    28    1
    23    27    30    1
    24    30    31   ar
    25    31    32   ar
    26    32    33   ar
    27    33    34   ar
    28    34    35   ar
    29    24    25    1
    30     4     5   ar
    31     5     6   ar
    32    16    12   ar
    33     6     1   ar
    34    19    14    1
    35    25    21    1
    36    35    30   ar
    37     9    10    1
    38    28    29    1
    39    25    26    1
@<TRIPOS>MOLECULE
*****
 35 39 0 0 0
SMALL
GASTEIGER

@<TRIPOS>ATOM
      1 C         137.9498  139.5933  160.9599 C.ar    1  UNL1        0.0503
      2 C         138.4771  138.2436  161.3474 C.ar    1  UNL1        0.0143
      3 C         138.7456  137.9291  162.7893 C.ar    1  UNL1       -0.0029
      4 C         138.4868  138.9642  163.8437 C.ar    1  UNL1       -0.0208
      5 C         137.9595  140.3139  163.4561 C.ar    1  UNL1       -0.0029
      6 C         137.6910  140.6284  162.0142 C.ar    1  UNL1        0.0143
      7 C         138.7953  140.3865  158.6348 C.2     1  UNL1        0.2313
      8 O         140.1777  140.5505  159.1934 O.2     1  UNL1       -0.2744
      9 N         137.6813  139.9080  159.5180 N.am    1  UNL1       -0.2836
     10 H         136.7740  139.8004  159.1514 H       1  UNL1        0.1549
     11 C         133.5110  140.8125  155.2677 C.3     1  UNL1        0.0594
     12 C         134.9945  140.8609  155.4843 C.ar    1  UNL1        0.0879
     13 N         135.7050  140.6090  156.7811 N.ar    1  UNL1       -0.2469
     14 C         137.1776  140.7622  156.5403 C.ar    1  UNL1        0.0695
     15 C         137.3773  141.1088  155.0946 C.ar    1  UNL1        0.0224
     16 S         136.0280  141.1698  154.4420 S.2     1  UNL1       -0.0755
     17 C         138.8499  141.2619  154.8538 C.3     1  UNL1        0.0351
     18 C         139.5602  141.0100  156.1506 C.3     1  UNL1        0.0204
     19 C         138.5268  140.7012  157.1929 C.3     1  UNL1        0.1173
     20 C         138.7553  138.6495  165.2855 C.3     1  UNL1        0.0420
     21 C         139.7038  139.5020  166.0752 C.3     1  UNL1        0.0585
     22 C         139.5741  139.8518  167.5280 C.3     1  UNL1        0.0175
     23 C         140.7387  140.7204  167.9014 C.3     1  UNL1        0.0199
     24 C         141.5882  140.9073  166.6793 C.3     1  UNL1        0.0856
     25 N         140.9486  140.1543  165.5506 N.3     1  UNL1       -0.2971
     26 H         141.5909  139.4433  165.2009 H       1  UNL1        0.1233
     27 C         142.8548  141.7068  166.5998 C.3     1  UNL1        0.1484
     28 O         143.3427  142.4604  167.8015 O.3     1  UNL1       -0.3786
     29 H         142.7278  142.3252  168.5395 H       1  UNL1        0.2108
     30 C         143.6336  141.7527  165.3187 C.ar    1  UNL1        0.0247
     31 C         144.2882  140.5092  164.7939 C.ar    1  UNL1        0.0012
     32 C         145.0670  140.5552  163.5128 C.ar    1  UNL1        0.0204
     33 C         145.1913  141.8444  162.7564 C.ar    1  UNL1        0.0989
     34 N         144.5367  143.0879  163.2811 N.ar    1  UNL1       -0.2426
     35 C         143.7579  143.0420  164.5623 C.ar    1  UNL1        0.0969
@<TRIPOS>BOND
     1    11    12    1
     2    12    13   ar
     3    13    14   ar
     4    14    15   ar
     5    15    16   ar
     6    15    17    1
     7    17    18    1
     8    18    19    1
     9    19     7    1
    10     7     8    2
    11     7     9   am
    12     9     1    1
    13     1     2   ar
    14     2     3   ar
    15     3     4   ar
    16     4    20    1
    17    21    20    1
    18    21    22    1
    19    22    23    1
    20    24    23    1
    21    24    27    1
    22    27    28    1
    23    27    30    1
    24    30    31   ar
    25    31    32   ar
    26    32    33   ar
    27    33    34   ar
    28    34    35   ar
    29    24    25    1
    30     4     5   ar
    31     5     6   ar
    32    16    12   ar
    33     6     1   ar
    34    19    14    1
    35    25    21    1
    36    35    30   ar
    37     9    10    1
    38    28    29    1
    39    25    26    1
@<TRIPOS>MOLECULE
*****
 35 39 0 0 0
SMALL
GASTEIGER

@<TRIPOS>ATOM
      1 C         140.9664  145.0387  161.4705 C.ar    1  UNL1        0.0503
      2 C         141.9878  144.1370  162.0979 C.ar    1  UNL1        0.0143
      3 C         141.8074  143.6686  163.5115 C.ar    1  UNL1       -0.0029
      4 C         140.6057  144.1018  164.2976 C.ar    1  UNL1       -0.0208
      5 C         139.5843  145.0035  163.6703 C.ar    1  UNL1       -0.0029
      6 C         139.7647  145.4719  162.2567 C.ar    1  UNL1        0.0143
      7 C         140.3228  144.9064  158.9569 C.2     1  UNL1        0.2313
      8 O         139.3185  143.8373  159.2704 O.2     1  UNL1       -0.2744
      9 N         141.1468  145.5071  160.0570 N.am    1  UNL1       -0.2836
     10 H         141.8059  146.2088  159.8513 H       1  UNL1        0.1549
     11 C         138.2154  149.9203  155.8166 C.3     1  UNL1        0.0594
     12 C         138.9718  148.6353  155.9791 C.ar    1  UNL1        0.0879
     13 N         139.0643  147.8192  157.2343 N.ar    1  UNL1       -0.2469
     14 C         139.9182  146.6202  156.9459 C.ar    1  UNL1        0.0695
     15 C         140.3536  146.6952  155.5125 C.ar    1  UNL1        0.0224
     16 S         139.7687  147.9406  154.9150 S.2     1  UNL1       -0.0755
     17 C         141.2075  145.4962  155.2241 C.3     1  UNL1        0.0351
     18 C         141.2999  144.6803  156.4792 C.3     1  UNL1        0.0204
     19 C         140.5031  145.3749  157.5434 C.3     1  UNL1        0.1173
     20 C         140.4253  143.6334  165.7112 C.3     1  UNL1        0.0420
     21 C         140.0673  142.2032  165.9874 C.3     1  UNL1        0.0585
     22 C         140.0296  141.5486  167.3365 C.3     1  UNL1        0.0175
     23 C         139.6232  140.1173  167.1459 C.3     1  UNL1        0.0199
     24 C         139.4096  139.8874  165.6791 C.3     1  UNL1        0.0856
     25 N         139.6841  141.1765  164.9631 N.3     1  UNL1       -0.2971
     26 H         138.8478  141.4804  164.4645 H       1  UNL1        0.1233
     27 C         138.9945  138.5952  165.0405 C.3     1  UNL1        0.1484
     28 O         138.4256  137.4915  165.8820 O.3     1  UNL1       -0.3786
     29 H         138.3949  137.7748  166.8092 H       1  UNL1        0.2108
     30 C         139.1483  138.4067  163.5603 C.ar    1  UNL1        0.0247
     31 C         138.0423  138.8158  162.6333 C.ar    1  UNL1        0.0012
     32 C         138.1961  138.6274  161.1531 C.ar    1  UNL1        0.0204
     33 C         139.4558  138.0298  160.6000 C.ar    1  UNL1        0.0989
     34 N         140.5618  137.6207  161.5271 N.ar    1  UNL1       -0.2426
     35 C         140.4080  137.8092  163.0072 C.ar    1  UNL1        0.0969
@<TRIPOS>BOND
     1    11    12    1
     2    12    13   ar
     3    13    14   ar
     4    14    15   ar
     5    15    16   ar
     6    15    17    1
     7    17    18    1
     8    18    19    1
     9    19     7    1
    10     7     8    2
    11     7     9   am
    12     9     1    1
    13     1     2   ar
    14     2     3   ar
    15     3     4   ar
    16     4    20    1
    17    21    20    1
    18    21    22    1
    19    22    23    1
    20    24    23    1
    21    24    27    1
    22    27    28    1
    23    27    30    1
    24    30    31   ar
    25    31    32   ar
    26    32    33   ar
    27    33    34   ar
    28    34    35   ar
    29    24    25    1
    30     4     5   ar
    31     5     6   ar
    32    16    12   ar
    33     6     1   ar
    34    19    14    1
    35    25    21    1
    36    35    30   ar
    37     9    10    1
    38    28    29    1
    39    25    26    1
@<TRIPOS>MOLECULE
*****
 35 39 0 0 0
SMALL
GASTEIGER

@<TRIPOS>ATOM
      1 C         142.6942  138.9446  157.0059 C.ar    1  UNL1        0.0503
      2 C         142.9630  139.1528  158.4669 C.ar    1  UNL1        0.0143
      3 C         143.2308  140.5326  158.9910 C.ar    1  UNL1       -0.0029
      4 C         143.2298  141.7041  158.0542 C.ar    1  UNL1       -0.0208
      5 C         142.9611  141.4959  156.5932 C.ar    1  UNL1       -0.0029
      6 C         142.6933  140.1161  156.0691 C.ar    1  UNL1        0.0143
      7 C         143.5219  136.7928  155.8081 C.2     1  UNL1        0.2313
      8 O         144.8851  137.4004  155.6586 O.2     1  UNL1       -0.2744
      9 N         142.4264  137.5650  156.4817 N.am    1  UNL1       -0.2836
     10 H         141.5317  137.1662  156.5799 H       1  UNL1        0.1549
     11 C         144.8793  131.0593  157.9818 C.3     1  UNL1        0.0594
     12 C         144.3051  132.0448  157.0076 C.ar    1  UNL1        0.0879
     13 N         144.3463  133.5386  157.1369 N.ar    1  UNL1       -0.2469
     14 C         143.6555  134.1266  155.9423 C.ar    1  UNL1        0.0695
     15 C         143.1874  132.9961  155.0747 C.ar    1  UNL1        0.0224
     16 S         143.5888  131.7095  155.7331 S.2     1  UNL1       -0.0755
     17 C         142.4966  133.5840  153.8800 C.3     1  UNL1        0.0351
     18 C         142.5378  135.0778  154.0094 C.3     1  UNL1        0.0204
     19 C         143.2540  135.4132  155.2839 C.3     1  UNL1        0.1173
     20 C         143.4977  143.0838  158.5783 C.3     1  UNL1        0.0420
     21 C         142.3641  143.9291  159.0787 C.3     1  UNL1        0.0585
     22 C         141.3985  144.7014  158.2294 C.3     1  UNL1        0.0175
     23 C         140.4347  145.4002  159.1420 C.3     1  UNL1        0.0199
     24 C         140.8047  145.0598  160.5553 C.3     1  UNL1        0.0856
     25 N         141.9971  144.1507  160.5161 N.3     1  UNL1       -0.2971
     26 H         141.7675  143.2595  160.9561 H       1  UNL1        0.1233
     27 C         140.1050  145.5437  161.7907 C.3     1  UNL1        0.1484
     28 O         140.1799  146.9912  162.1768 O.3     1  UNL1       -0.3786
     29 H         140.7150  147.4721  161.5262 H       1  UNL1        0.2108
     30 C         139.3304  144.5801  162.6400 C.ar    1  UNL1        0.0247
     31 C         139.2943  144.7544  164.1294 C.ar    1  UNL1        0.0012
     32 C         138.5197  143.7907  164.9787 C.ar    1  UNL1        0.0204
     33 C         137.7812  142.6527  164.3388 C.ar    1  UNL1        0.0989
     34 N         137.8173  142.4784  162.8493 N.ar    1  UNL1       -0.2426
     35 C         138.5919  143.4421  162.0000 C.ar    1  UNL1        0.0969
@<TRIPOS>BOND
     1    11    12    1
     2    12    13   ar
     3    13    14   ar
     4    14    15   ar
     5    15    16   ar
     6    15    17    1
     7    17    18    1
     8    18    19    1
     9    19     7    1
    10     7     8    2
    11     7     9   am
    12     9     1    1
    13     1     2   ar
    14     2     3   ar
    15     3     4   ar
    16     4    20    1
    17    21    20    1
    18    21    22    1
    19    22    23    1
    20    24    23    1
    21    24    27    1
    22    27    28    1
    23    27    30    1
    24    30    31   ar
    25    31    32   ar
    26    32    33   ar
    27    33    34   ar
    28    34    35   ar
    29    24    25    1
    30     4     5   ar
    31     5     6   ar
    32    16    12   ar
    33     6     1   ar
    34    19    14    1
    35    25    21    1
    36    35    30   ar
    37     9    10    1
    38    28    29    1
    39    25    26    1
@<TRIPOS>MOLECULE
*****
 35 39 0 0 0
SMALL
GASTEIGER

@<TRIPOS>ATOM
      1 C         143.2891  138.3769  159.8420 C.ar    1  UNL1        0.0503
      2 C         143.7795  139.7904  159.7339 C.ar    1  UNL1        0.0143
      3 C         144.2470  140.5178  160.9597 C.ar    1  UNL1       -0.0029
      4 C         144.2241  139.8318  162.2934 C.ar    1  UNL1       -0.0208
      5 C         143.7337  138.4184  162.4015 C.ar    1  UNL1       -0.0029
      6 C         143.2662  137.6910  161.1757 C.ar    1  UNL1        0.0143
      7 C         141.5297  138.0379  157.9607 C.2     1  UNL1        0.2313
      8 O         140.7052  139.1539  158.5307 O.2     1  UNL1       -0.2744
      9 N         142.8216  137.6495  158.6163 N.am    1  UNL1       -0.2836
     10 H         143.3628  136.9171  158.2422 H       1  UNL1        0.1549
     11 C         143.3873  132.7224  155.1792 C.3     1  UNL1        0.0594
     12 C         142.5436  133.9524  155.3382 C.ar    1  UNL1        0.0879
     13 N         142.6670  134.9709  156.4325 N.ar    1  UNL1       -0.2469
     14 C         141.6280  136.0278  156.2015 C.ar    1  UNL1        0.0695
     15 C         140.8624  135.6626  154.9644 C.ar    1  UNL1        0.0224
     16 S         141.4282  134.3799  154.4309 S.2     1  UNL1       -0.0755
     17 C         139.8234  136.7195  154.7334 C.3     1  UNL1        0.0351
     18 C         139.9469  137.7379  155.8277 C.3     1  UNL1        0.0204
     19 C         141.0622  137.3105  156.7350 C.3     1  UNL1        0.1173
     20 C         144.6915  140.5593  163.5191 C.3     1  UNL1        0.0420
     21 C         144.1532  141.9238  163.8324 C.3     1  UNL1        0.0585
     22 C         144.8545  142.9880  164.6235 C.3     1  UNL1        0.0175
     23 C         143.9538  144.1857  164.6896 C.3     1  UNL1        0.0199
     24 C         142.6960  143.8617  163.9394 C.3     1  UNL1        0.0856
     25 N         142.8192  142.4638  163.4096 N.3     1  UNL1       -0.2971
     26 H         142.7562  142.4727  162.3916 H       1  UNL1        0.1233
     27 C         141.5211  144.7753  163.7519 C.3     1  UNL1        0.1484
     28 O         141.7183  146.2623  163.7616 O.3     1  UNL1       -0.3786
     29 H         142.6573  146.4630  163.8990 H       1  UNL1        0.2108
     30 C         140.1492  144.2019  163.5548 C.ar    1  UNL1        0.0247
     31 C         139.3574  143.7278  164.7374 C.ar    1  UNL1        0.0012
     32 C         137.9855  143.1544  164.5403 C.ar    1  UNL1        0.0204
     33 C         137.4051  143.0551  163.1607 C.ar    1  UNL1        0.0989
     34 N         138.1968  143.5293  161.9782 N.ar    1  UNL1       -0.2426
     35 C         139.5688  144.1026  162.1753 C.ar    1  UNL1        0.0969
@<TRIPOS>BOND
     1    11    12    1
     2    12    13   ar
     3    13    14   ar
     4    14    15   ar
     5    15    16   ar
     6    15    17    1
     7    17    18    1
     8    18    19    1
     9    19     7    1
    10     7     8    2
    11     7     9   am
    12     9     1    1
    13     1     2   ar
    14     2     3   ar
    15     3     4   ar
    16     4    20    1
    17    21    20    1
    18    21    22    1
    19    22    23    1
    20    24    23    1
    21    24    27    1
    22    27    28    1
    23    27    30    1
    24    30    31   ar
    25    31    32   ar
    26    32    33   ar
    27    33    34   ar
    28    34    35   ar
    29    24    25    1
    30     4     5   ar
    31     5     6   ar
    32    16    12   ar
    33     6     1   ar
    34    19    14    1
    35    25    21    1
    36    35    30   ar
    37     9    10    1
    38    28    29    1
    39    25    26    1
@<TRIPOS>MOLECULE
*****
 35 39 0 0 0
SMALL
GASTEIGER

@<TRIPOS>ATOM
      1 C         142.8081  138.6542  159.5652 C.ar    1  UNL1        0.0503
      2 C         143.8000  138.6114  160.6896 C.ar    1  UNL1        0.0143
      3 C         144.1782  139.8747  161.4045 C.ar    1  UNL1       -0.0029
      4 C         143.5647  141.1808  160.9950 C.ar    1  UNL1       -0.0208
      5 C         142.5728  141.2236  159.8706 C.ar    1  UNL1       -0.0029
      6 C         142.1946  139.9603  159.1557 C.ar    1  UNL1        0.0143
      7 C         142.8788  137.1659  157.4368 C.2     1  UNL1        0.2313
      8 O         143.7060  138.2040  156.7383 O.2     1  UNL1       -0.2744
      9 N         142.4298  137.3910  158.8503 N.am    1  UNL1       -0.2836
     10 H         141.8869  136.7096  159.3087 H       1  UNL1        0.1549
     11 C         144.9083  131.2386  157.8735 C.3     1  UNL1        0.0594
     12 C         144.0625  132.3509  157.3282 C.ar    1  UNL1        0.0879
     13 N         144.1094  133.7869  157.7592 N.ar    1  UNL1       -0.2469
     14 C         143.0971  134.5460  156.9535 C.ar    1  UNL1        0.0695
     15 C         142.4245  133.5792  156.0246 C.ar    1  UNL1        0.0224
     16 S         143.0212  132.2225  156.2562 S.2     1  UNL1       -0.0755
     17 C         141.4122  134.3383  155.2190 C.3     1  UNL1        0.0351
     18 C         141.4592  135.7742  155.6499 C.3     1  UNL1        0.0204
     19 C         142.5005  135.9026  156.7219 C.3     1  UNL1        0.1173
     20 C         143.9430  142.4440  161.7099 C.3     1  UNL1        0.0420
     21 C         143.7201  142.5646  163.1884 C.3     1  UNL1        0.0585
     22 C         144.7503  142.9551  164.2063 C.3     1  UNL1        0.0175
     23 C         144.0947  142.9477  165.5555 C.3     1  UNL1        0.0199
     24 C         142.6595  142.5527  165.3714 C.3     1  UNL1        0.0856
     25 N         142.4279  142.3159  163.9084 N.3     1  UNL1       -0.2971
     26 H         141.7111  142.9544  163.5636 H       1  UNL1        0.1233
     27 C         141.6355  142.4181  166.4592 C.3     1  UNL1        0.1484
     28 O         140.2688  143.0097  166.2802 O.3     1  UNL1       -0.3786
     29 H         140.2139  143.4402  165.4127 H       1  UNL1        0.2108
     30 C         141.9784  141.6919  167.7262 C.ar    1  UNL1        0.0247
     31 C         142.1944  140.2077  167.7049 C.ar    1  UNL1        0.0012
     32 C         142.5373  139.4815  168.9719 C.ar    1  UNL1        0.0204
     33 C         142.6640  140.2395  170.2600 C.ar    1  UNL1        0.0989
     34 N         142.4479  141.7237  170.2812 N.ar    1  UNL1       -0.2426
     35 C         142.1051  142.4499  169.0143 C.ar    1  UNL1        0.0969
@<TRIPOS>BOND
     1    11    12    1
     2    12    13   ar
     3    13    14   ar
     4    14    15   ar
     5    15    16   ar
     6    15    17    1
     7    17    18    1
     8    18    19    1
     9    19     7    1
    10     7     8    2
    11     7     9   am
    12     9     1    1
    13     1     2   ar
    14     2     3   ar
    15     3     4   ar
    16     4    20    1
    17    21    20    1
    18    21    22    1
    19    22    23    1
    20    24    23    1
    21    24    27    1
    22    27    28    1
    23    27    30    1
    24    30    31   ar
    25    31    32   ar
    26    32    33   ar
    27    33    34   ar
    28    34    35   ar
    29    24    25    1
    30     4     5   ar
    31     5     6   ar
    32    16    12   ar
    33     6     1   ar
    34    19    14    1
    35    25    21    1
    36    35    30   ar
    37     9    10    1
    38    28    29    1
    39    25    26    1
@<TRIPOS>MOLECULE
*****
 35 39 0 0 0
SMALL
GASTEIGER

@<TRIPOS>ATOM
      1 C         139.1571  139.1034  159.7913 C.ar    1  UNL1        0.0503
      2 C         138.3491  138.7339  160.9998 C.ar    1  UNL1        0.0143
      3 C         139.0309  138.1890  162.2198 C.ar    1  UNL1       -0.0029
      4 C         140.5205  138.0136  162.2313 C.ar    1  UNL1       -0.0208
      5 C         141.3285  138.3831  161.0227 C.ar    1  UNL1       -0.0029
      6 C         140.6467  138.9280  159.8027 C.ar    1  UNL1        0.0143
      7 C         138.1522  141.1104  158.4827 C.2     1  UNL1        0.2313
      8 O         138.5108  142.0276  159.6142 O.2     1  UNL1       -0.2744
      9 N         138.4754  139.6483  158.5713 N.am    1  UNL1       -0.2836
     10 H         138.2401  139.0463  157.8287 H       1  UNL1        0.1549
     11 C         139.1041  146.2432  154.9913 C.3     1  UNL1        0.0594
     12 C         138.4182  144.9651  155.3735 C.ar    1  UNL1        0.0879
     13 N         138.7752  144.0863  156.5355 N.ar    1  UNL1       -0.2469
     14 C         137.8325  142.9195  156.5411 C.ar    1  UNL1        0.0695
     15 C         136.8929  143.0772  155.3825 C.ar    1  UNL1        0.0224
     16 S         137.2549  144.3414  154.6610 S.2     1  UNL1       -0.0755
     17 C         135.9503  141.9104  155.3881 C.3     1  UNL1        0.0351
     18 C         136.3073  141.0317  156.5501 C.3     1  UNL1        0.0204
     19 C         137.4705  141.6553  157.2627 C.3     1  UNL1        0.1173
     20 C         141.2022  137.4687  163.4513 C.3     1  UNL1        0.0420
     21 C         141.7850  138.4065  164.4666 C.3     1  UNL1        0.0585
     22 C         142.7934  138.0510  165.5186 C.3     1  UNL1        0.0175
     23 C         143.0934  139.2892  166.3104 C.3     1  UNL1        0.0199
     24 C         142.2704  140.4100  165.7477 C.3     1  UNL1        0.0856
     25 N         141.4618  139.8644  164.6082 N.3     1  UNL1       -0.2971
     26 H         141.7003  140.3570  163.7475 H       1  UNL1        0.1233
     27 C         142.2582  141.8274  166.2384 C.3     1  UNL1        0.1484
     28 O         143.1050  142.2221  167.4119 O.3     1  UNL1       -0.3786
     29 H         143.5942  141.4483  167.7325 H       1  UNL1        0.2108
     30 C         141.3992  142.8500  165.5556 C.ar    1  UNL1        0.0247
     31 C         140.0154  143.1272  166.0639 C.ar    1  UNL1        0.0012
     32 C         139.1564  144.1499  165.3811 C.ar    1  UNL1        0.0204
     33 C         139.6811  144.8954  164.1900 C.ar    1  UNL1        0.0989
     34 N         141.0648  144.6182  163.6816 N.ar    1  UNL1       -0.2426
     35 C         141.9238  143.5955  164.3644 C.ar    1  UNL1        0.0969
@<TRIPOS>BOND
     1    11    12    1
     2    12    13   ar
     3    13    14   ar
     4    14    15   ar
     5    15    16   ar
     6    15    17    1
     7    17    18    1
     8    18    19    1
     9    19     7    1
    10     7     8    2
    11     7     9   am
    12     9     1    1
    13     1     2   ar
    14     2     3   ar
    15     3     4   ar
    16     4    20    1
    17    21    20    1
    18    21    22    1
    19    22    23    1
    20    24    23    1
    21    24    27    1
    22    27    28    1
    23    27    30    1
    24    30    31   ar
    25    31    32   ar
    26    32    33   ar
    27    33    34   ar
    28    34    35   ar
    29    24    25    1
    30     4     5   ar
    31     5     6   ar
    32    16    12   ar
    33     6     1   ar
    34    19    14    1
    35    25    21    1
    36    35    30   ar
    37     9    10    1
    38    28    29    1
    39    25    26    1
