@<TRIPOS>MOLECULE
*****
 33 36 0 0 0
SMALL
GASTEIGER

@<TRIPOS>ATOM
      1 C         139.8489  139.8533  163.2458 C.ar    1  UNL1        0.1314
      2 C         139.1967  138.7495  164.0244 C.ar    1  UNL1        0.0382
      3 C         138.7604  138.9865  165.4399 C.ar    1  UNL1        0.0754
      4 C         138.9764  140.3272  166.0767 C.ar    1  UNL1        0.0212
      5 C         139.6286  141.4310  165.2982 C.ar    1  UNL1        0.0901
      6 N         140.0648  141.1940  163.8827 N.ar    1  UNL1       -0.2325
      7 C         141.5939  138.9053  157.5840 C.3     1  UNL1        0.0897
      8 N         141.1577  139.1423  158.9995 N.3     1  UNL1       -0.2686
      9 C         141.9699  140.0290  159.8961 C.3     1  UNL1        0.0939
     10 C         141.5336  140.2660  161.3116 C.3     1  UNL1        0.1095
     11 N         140.2851  139.6163  161.8304 N.pl3   1  UNL1       -0.2904
     12 C         139.4730  138.7295  160.9337 C.3     1  UNL1        0.1095
     13 C         139.9092  138.4925  159.5183 C.3     1  UNL1        0.0939
     14 C         138.1082  137.8826  166.2185 C.3     1  UNL1        0.4187
     15 F         137.4559  136.7788  166.9970 F       1  UNL1       -0.1659
     16 F         138.8773  136.8684  165.4250 F       1  UNL1       -0.1659
     17 F         137.3390  138.8968  167.0120 F       1  UNL1       -0.1659
     18 C         139.8446  142.7719  165.9350 C.3     1  UNL1        0.1875
     19 O         140.5619  142.8714  167.2486 O.3     1  UNL1       -0.3470
     20 C         141.9687  142.3664  167.3751 C.3     1  UNL1        0.1467
     21 C         142.2877  141.2716  168.3495 C.3     1  UNL1        0.0489
     22 C         141.8394  142.3429  169.2989 C.3     1  UNL1        0.0236
     23 C         141.8274  142.0793  170.7756 C.3     1  UNL1        0.0690
     24 N         142.2637  140.7445  171.3027 N.3     1  UNL1       -0.2974
     25 C         142.7120  139.6733  170.3533 C.3     1  UNL1        0.0690
     26 C         142.7240  139.9368  168.8767 C.3     1  UNL1        0.0236
     27 H         141.4760  140.3630  171.8265 H       1  UNL1        0.1232
     28 C         142.6252  140.5806  167.0616 C.ar    1  UNL1       -0.0204
     29 C         142.2832  139.1321  166.8757 C.ar    1  UNL1       -0.0042
     30 C         142.6206  138.4411  165.5878 C.ar    1  UNL1       -0.0003
     31 C         143.3002  139.1987  164.4859 C.ar    1  UNL1       -0.0000
     32 C         143.6423  140.6473  164.6718 C.ar    1  UNL1       -0.0003
     33 C         143.3048  141.3383  165.9597 C.ar    1  UNL1       -0.0042
@<TRIPOS>BOND
     1     7     8    1
     2     8     9    1
     3     9    10    1
     4    10    11    1
     5    11     1    1
     6     1     2   ar
     7     2     3   ar
     8     3    14    1
     9    14    15    1
    10    14    16    1
    11    14    17    1
    12     3     4   ar
    13     4     5   ar
    14     5    18    1
    15    18    19    1
    16    19    20    1
    17    20    21    1
    18    21    28    1
    19    28    29   ar
    20    29    30   ar
    21    30    31   ar
    22    31    32   ar
    23    32    33   ar
    24    21    22    1
    25    22    23    1
    26    23    24    1
    27    24    25    1
    28    25    26    1
    29     5     6   ar
    30    11    12    1
    31    12    13    1
    32    13     8    1
    33     6     1   ar
    34    26    21    1
    35    33    28   ar
    36    24    27    1
@<TRIPOS>MOLECULE
*****
 33 36 0 0 0
SMALL
GASTEIGER

@<TRIPOS>ATOM
      1 C         138.9596  140.0780  162.5976 C.ar    1  UNL1        0.1314
      2 C         138.6189  138.9434  163.5176 C.ar    1  UNL1        0.0382
      3 C         138.5765  139.1669  165.0003 C.ar    1  UNL1        0.0754
      4 C         138.8749  140.5249  165.5629 C.ar    1  UNL1        0.0212
      5 C         139.2156  141.6595  164.6428 C.ar    1  UNL1        0.0901
      6 N         139.2579  141.4361  163.1602 N.ar    1  UNL1       -0.2325
      7 C         139.1290  139.1841  156.6670 C.3     1  UNL1        0.0897
      8 N         139.0867  139.4076  158.1496 N.3     1  UNL1       -0.2686
      9 C         138.1877  140.4622  158.7237 C.3     1  UNL1        0.0939
     10 C         138.1454  140.6856  160.2064 C.3     1  UNL1        0.1095
     11 N         139.0020  139.8545  161.1149 N.pl3   1  UNL1       -0.2904
     12 C         139.9009  138.7999  160.5408 C.3     1  UNL1        0.1095
     13 C         139.9433  138.5765  159.0581 C.3     1  UNL1        0.0939
     14 C         138.2358  138.0322  165.9203 C.3     1  UNL1        0.4187
     15 F         137.8951  136.8976  166.8404 F       1  UNL1       -0.1659
     16 F         139.0794  137.1081  165.0932 F       1  UNL1       -0.1659
     17 F         137.3922  138.9563  166.7475 F       1  UNL1       -0.1659
     18 C         139.5139  143.0177  165.2054 C.3     1  UNL1        0.1875
     19 O         140.9091  143.5653  165.1433 O.3     1  UNL1       -0.3470
     20 C         142.0831  142.6488  165.3213 C.3     1  UNL1        0.1467
     21 C         143.0545  142.4472  164.1963 C.3     1  UNL1        0.0489
     22 C         142.9885  143.9456  164.2181 C.3     1  UNL1        0.0236
     23 C         143.7998  144.7463  163.2430 C.3     1  UNL1        0.0690
     24 N         144.6769  144.0487  162.2461 N.3     1  UNL1       -0.2974
     25 C         144.7429  142.5503  162.2243 C.3     1  UNL1        0.0690
     26 C         143.9316  141.7496  163.1994 C.3     1  UNL1        0.0236
     27 H         145.6273  144.3830  162.4054 H       1  UNL1        0.1232
     28 C         142.7830  141.0188  164.5652 C.ar    1  UNL1       -0.0204
     29 C         142.7393  140.6123  166.0083 C.ar    1  UNL1       -0.0042
     30 C         142.4679  139.1839  166.3772 C.ar    1  UNL1       -0.0003
     31 C         142.2402  138.1621  165.3028 C.ar    1  UNL1       -0.0000
     32 C         142.2839  138.5687  163.8597 C.ar    1  UNL1       -0.0003
     33 C         142.5553  139.9971  163.4908 C.ar    1  UNL1       -0.0042
@<TRIPOS>BOND
     1     7     8    1
     2     8     9    1
     3     9    10    1
     4    10    11    1
     5    11     1    1
     6     1     2   ar
     7     2     3   ar
     8     3    14    1
     9    14    15    1
    10    14    16    1
    11    14    17    1
    12     3     4   ar
    13     4     5   ar
    14     5    18    1
    15    18    19    1
    16    19    20    1
    17    20    21    1
    18    21    28    1
    19    28    29   ar
    20    29    30   ar
    21    30    31   ar
    22    31    32   ar
    23    32    33   ar
    24    21    22    1
    25    22    23    1
    26    23    24    1
    27    24    25    1
    28    25    26    1
    29     5     6   ar
    30    11    12    1
    31    12    13    1
    32    13     8    1
    33     6     1   ar
    34    26    21    1
    35    33    28   ar
    36    24    27    1
@<TRIPOS>MOLECULE
*****
 33 36 0 0 0
SMALL
GASTEIGER

@<TRIPOS>ATOM
      1 C         139.5376  139.8533  162.2641 C.ar    1  UNL1        0.1314
      2 C         139.0154  141.2537  162.1374 C.ar    1  UNL1        0.0382
      3 C         138.2167  141.8602  163.2529 C.ar    1  UNL1        0.0754
      4 C         137.9404  141.0662  164.4952 C.ar    1  UNL1        0.0212
      5 C         138.4626  139.6658  164.6219 C.ar    1  UNL1        0.0901
      6 N         139.2613  139.0594  163.5063 N.ar    1  UNL1       -0.2325
      7 C         142.7321  137.4276  157.8019 C.3     1  UNL1        0.0897
      8 N         141.9335  138.0340  158.9175 N.3     1  UNL1       -0.2686
      9 C         142.4559  137.9917  160.3229 C.3     1  UNL1        0.0939
     10 C         141.6572  138.5982  161.4384 C.3     1  UNL1        0.1095
     11 N         140.3362  139.2469  161.1485 N.pl3   1  UNL1       -0.2904
     12 C         139.8139  139.2892  159.7431 C.3     1  UNL1        0.1095
     13 C         140.6125  138.6828  158.6276 C.3     1  UNL1        0.0939
     14 C         137.6945  143.2606  163.1261 C.3     1  UNL1        0.4187
     15 F         137.1722  144.6610  162.9994 F       1  UNL1       -0.1659
     16 F         137.8763  143.1939  161.6387 F       1  UNL1       -0.1659
     17 F         137.5126  143.3274  164.6136 F       1  UNL1       -0.1659
     18 C         138.1863  138.8718  165.8642 C.3     1  UNL1        0.1875
     19 O         138.8907  139.2122  167.1440 O.3     1  UNL1       -0.3470
     20 C         140.1559  140.0173  167.1126 C.3     1  UNL1        0.1467
     21 C         140.2703  141.2668  167.9345 C.3     1  UNL1        0.0489
     22 C         139.6861  140.3360  168.9554 C.3     1  UNL1        0.0236
     23 C         139.4054  140.8273  170.3447 C.3     1  UNL1        0.0690
     24 N         139.7090  142.2493  170.7129 N.3     1  UNL1       -0.2974
     25 C         140.2932  143.1801  169.6920 C.3     1  UNL1        0.0690
     26 C         140.5739  142.6888  168.3028 C.3     1  UNL1        0.0236
     27 H         140.3658  142.2178  171.4927 H       1  UNL1        0.1232
     28 C         140.8148  141.7636  166.6281 C.ar    1  UNL1       -0.0204
     29 C         141.7267  140.8927  165.8158 C.ar    1  UNL1       -0.0042
     30 C         142.2712  141.3895  164.5094 C.ar    1  UNL1       -0.0003
     31 C         141.9037  142.7573  164.0153 C.ar    1  UNL1       -0.0000
     32 C         140.9918  143.6283  164.8276 C.ar    1  UNL1       -0.0003
     33 C         140.4473  143.1315  166.1340 C.ar    1  UNL1       -0.0042
@<TRIPOS>BOND
     1     7     8    1
     2     8     9    1
     3     9    10    1
     4    10    11    1
     5    11     1    1
     6     1     2   ar
     7     2     3   ar
     8     3    14    1
     9    14    15    1
    10    14    16    1
    11    14    17    1
    12     3     4   ar
    13     4     5   ar
    14     5    18    1
    15    18    19    1
    16    19    20    1
    17    20    21    1
    18    21    28    1
    19    28    29   ar
    20    29    30   ar
    21    30    31   ar
    22    31    32   ar
    23    32    33   ar
    24    21    22    1
    25    22    23    1
    26    23    24    1
    27    24    25    1
    28    25    26    1
    29     5     6   ar
    30    11    12    1
    31    12    13    1
    32    13     8    1
    33     6     1   ar
    34    26    21    1
    35    33    28   ar
    36    24    27    1
@<TRIPOS>MOLECULE
*****
 33 36 0 0 0
SMALL
GASTEIGER

@<TRIPOS>ATOM
      1 C         140.1675  139.4351  162.9779 C.ar    1  UNL1        0.1314
      2 C         139.5012  138.4641  163.9069 C.ar    1  UNL1        0.0382
      3 C         138.8642  138.9544  165.1734 C.ar    1  UNL1        0.0754
      4 C         138.8936  140.4157  165.5108 C.ar    1  UNL1        0.0212
      5 C         139.5599  141.3866  164.5817 C.ar    1  UNL1        0.0901
      6 N         140.1969  140.8963  163.3153 N.ar    1  UNL1       -0.2325
      7 C         142.7153  137.4740  157.9120 C.3     1  UNL1        0.0897
      8 N         142.0784  137.9643  159.1785 N.3     1  UNL1       -0.2686
      9 C         140.7771  138.7084  159.1243 C.3     1  UNL1        0.0939
     10 C         140.1401  139.1986  160.3907 C.3     1  UNL1        0.1095
     11 N         140.8045  138.9448  161.7114 N.pl3   1  UNL1       -0.2904
     12 C         142.1057  138.2008  161.7656 C.3     1  UNL1        0.1095
     13 C         142.7427  137.7105  160.4991 C.3     1  UNL1        0.0939
     14 C         138.1979  137.9834  166.1025 C.3     1  UNL1        0.4187
     15 F         137.5316  137.0124  167.0315 F       1  UNL1       -0.1659
     16 F         138.9212  136.8503  165.4370 F       1  UNL1       -0.1659
     17 F         137.4746  139.1165  166.7679 F       1  UNL1       -0.1659
     18 C         139.5893  142.8479  164.9191 C.3     1  UNL1        0.1875
     19 O         140.8706  143.6191  164.8020 O.3     1  UNL1       -0.3470
     20 C         142.1082  143.1264  165.4916 C.3     1  UNL1        0.1467
     21 C         143.2462  142.5736  164.6857 C.3     1  UNL1        0.0489
     22 C         143.0360  143.8794  163.9781 C.3     1  UNL1        0.0236
     23 C         143.8996  144.2456  162.8076 C.3     1  UNL1        0.0690
     24 N         144.9733  143.3061  162.3446 N.3     1  UNL1       -0.2974
     25 C         145.1835  142.0002  163.0522 C.3     1  UNL1        0.0690
     26 C         144.3199  141.6340  164.2228 C.3     1  UNL1        0.0236
     27 H         145.8549  143.8161  162.4000 H       1  UNL1        0.1232
     28 C         143.0611  141.4598  165.6732 C.ar    1  UNL1       -0.0204
     29 C         143.0900  140.0337  165.2093 C.ar    1  UNL1       -0.0042
     30 C         142.9049  138.9198  166.1967 C.ar    1  UNL1       -0.0003
     31 C         142.6908  139.2322  167.6482 C.ar    1  UNL1       -0.0000
     32 C         142.6619  140.6583  168.1121 C.ar    1  UNL1       -0.0003
     33 C         142.8470  141.7721  167.1246 C.ar    1  UNL1       -0.0042
@<TRIPOS>BOND
     1     7     8    1
     2     8     9    1
     3     9    10    1
     4    10    11    1
     5    11     1    1
     6     1     2   ar
     7     2     3   ar
     8     3    14    1
     9    14    15    1
    10    14    16    1
    11    14    17    1
    12     3     4   ar
    13     4     5   ar
    14     5    18    1
    15    18    19    1
    16    19    20    1
    17    20    21    1
    18    21    28    1
    19    28    29   ar
    20    29    30   ar
    21    30    31   ar
    22    31    32   ar
    23    32    33   ar
    24    21    22    1
    25    22    23    1
    26    23    24    1
    27    24    25    1
    28    25    26    1
    29     5     6   ar
    30    11    12    1
    31    12    13    1
    32    13     8    1
    33     6     1   ar
    34    26    21    1
    35    33    28   ar
    36    24    27    1
@<TRIPOS>MOLECULE
*****
 33 36 0 0 0
SMALL
GASTEIGER

@<TRIPOS>ATOM
      1 C         140.0540  141.1868  167.0095 C.ar    1  UNL1        0.1314
      2 C         139.4021  139.8741  167.3284 C.ar    1  UNL1        0.0382
      3 C         138.4951  139.2241  166.3261 C.ar    1  UNL1        0.0754
      4 C         138.2400  139.8867  165.0048 C.ar    1  UNL1        0.0212
      5 C         138.8919  141.1994  164.6858 C.ar    1  UNL1        0.0901
      6 N         139.7989  141.8495  165.6882 N.ar    1  UNL1       -0.2325
      7 C         143.6822  143.7872  171.0188 C.3     1  UNL1        0.0897
      8 N         142.7752  143.1371  170.0164 N.3     1  UNL1       -0.2686
      9 C         141.3128  143.4707  170.0010 C.3     1  UNL1        0.0939
     10 C         140.4058  142.8206  168.9987 C.3     1  UNL1        0.1095
     11 N         140.9611  141.8369  168.0118 N.pl3   1  UNL1       -0.2904
     12 C         142.4234  141.5034  168.0272 C.3     1  UNL1        0.1095
     13 C         143.3305  142.1535  169.0295 C.3     1  UNL1        0.0939
     14 C         137.8431  137.9113  166.6451 C.3     1  UNL1        0.4187
     15 F         137.1913  136.5986  166.9640 F       1  UNL1       -0.1659
     16 F         137.2319  138.5137  167.8753 F       1  UNL1       -0.1659
     17 F         138.4544  137.3089  165.4149 F       1  UNL1       -0.1659
     18 C         138.6368  141.8621  163.3645 C.3     1  UNL1        0.1875
     19 O         139.7665  142.0723  162.4004 O.3     1  UNL1       -0.3470
     20 C         140.7477  140.9675  162.1424 C.3     1  UNL1        0.1467
     21 C         142.2015  141.1677  162.4530 C.3     1  UNL1        0.0489
     22 C         141.9416  142.3900  161.6232 C.3     1  UNL1        0.0236
     23 C         143.0505  143.3639  161.3548 C.3     1  UNL1        0.0690
     24 N         144.4191  143.1154  161.9162 N.3     1  UNL1       -0.2974
     25 C         144.6789  141.8932  162.7459 C.3     1  UNL1        0.0690
     26 C         143.5701  140.9193  163.0143 C.3     1  UNL1        0.0236
     27 H         144.6493  143.9208  162.4982 H       1  UNL1        0.1232
     28 C         141.9563  139.8759  163.1749 C.ar    1  UNL1       -0.0204
     29 C         141.2148  138.7646  162.4929 C.ar    1  UNL1       -0.0042
     30 C         140.9697  137.4728  163.2147 C.ar    1  UNL1       -0.0003
     31 C         141.4661  137.2923  164.6187 C.ar    1  UNL1       -0.0000
     32 C         142.2077  138.4035  165.3007 C.ar    1  UNL1       -0.0003
     33 C         142.4528  139.6953  164.5788 C.ar    1  UNL1       -0.0042
@<TRIPOS>BOND
     1     7     8    1
     2     8     9    1
     3     9    10    1
     4    10    11    1
     5    11     1    1
     6     1     2   ar
     7     2     3   ar
     8     3    14    1
     9    14    15    1
    10    14    16    1
    11    14    17    1
    12     3     4   ar
    13     4     5   ar
    14     5    18    1
    15    18    19    1
    16    19    20    1
    17    20    21    1
    18    21    28    1
    19    28    29   ar
    20    29    30   ar
    21    30    31   ar
    22    31    32   ar
    23    32    33   ar
    24    21    22    1
    25    22    23    1
    26    23    24    1
    27    24    25    1
    28    25    26    1
    29     5     6   ar
    30    11    12    1
    31    12    13    1
    32    13     8    1
    33     6     1   ar
    34    26    21    1
    35    33    28   ar
    36    24    27    1
@<TRIPOS>MOLECULE
*****
 33 36 0 0 0
SMALL
GASTEIGER

@<TRIPOS>ATOM
      1 C         139.5909  139.4864  162.4045 C.ar    1  UNL1        0.1314
      2 C         139.2905  138.5525  163.5391 C.ar    1  UNL1        0.0382
      3 C         138.5066  139.0375  164.7224 C.ar    1  UNL1        0.0754
      4 C         138.0231  140.4566  164.7711 C.ar    1  UNL1        0.0212
      5 C         138.3234  141.3906  163.6364 C.ar    1  UNL1        0.0901
      6 N         139.1073  140.9055  162.4531 N.ar    1  UNL1       -0.2325
      7 C         142.7265  137.5461  157.6713 C.3     1  UNL1        0.0897
      8 N         141.9426  138.0312  158.8546 N.3     1  UNL1       -0.2686
      9 C         142.5520  137.9931  160.2247 C.3     1  UNL1        0.0939
     10 C         141.7681  138.4782  161.4080 C.3     1  UNL1        0.1095
     11 N         140.3748  139.0014  161.2212 N.pl3   1  UNL1       -0.2904
     12 C         139.7654  139.0394  159.8511 C.3     1  UNL1        0.1095
     13 C         140.5493  138.5543  158.6678 C.3     1  UNL1        0.0939
     14 C         138.2063  138.1035  165.8571 C.3     1  UNL1        0.4187
     15 F         137.9060  137.1694  166.9917 F       1  UNL1       -0.1659
     16 F         137.5388  139.2219  166.6011 F       1  UNL1       -0.1659
     17 F         138.8738  136.9851  165.1131 F       1  UNL1       -0.1659
     18 C         137.8398  142.8097  163.6851 C.3     1  UNL1        0.1875
     19 O         138.7713  143.9052  164.1120 O.3     1  UNL1       -0.3470
     20 C         139.7886  143.6493  165.1841 C.3     1  UNL1        0.1467
     21 C         141.2466  143.5921  164.8363 C.3     1  UNL1        0.0489
     22 C         140.8420  144.8122  164.0632 C.3     1  UNL1        0.0236
     23 C         141.8601  145.5583  163.2527 C.3     1  UNL1        0.0690
     24 N         143.2827  145.0843  163.2153 N.3     1  UNL1       -0.2974
     25 C         143.6873  143.8642  163.9883 C.3     1  UNL1        0.0690
     26 C         142.6692  143.1181  164.7988 C.3     1  UNL1        0.0236
     27 H         143.8585  145.8538  163.5570 H       1  UNL1        0.1232
     28 C         141.1448  142.3919  165.7301 C.ar    1  UNL1       -0.0204
     29 C         141.7814  141.0965  165.3219 C.ar    1  UNL1       -0.0042
     30 C         141.6796  139.8963  166.2158 C.ar    1  UNL1       -0.0003
     31 C         140.9411  139.9915  167.5180 C.ar    1  UNL1       -0.0000
     32 C         140.3045  141.2868  167.9262 C.ar    1  UNL1       -0.0003
     33 C         140.4063  142.4870  167.0323 C.ar    1  UNL1       -0.0042
@<TRIPOS>BOND
     1     7     8    1
     2     8     9    1
     3     9    10    1
     4    10    11    1
     5    11     1    1
     6     1     2   ar
     7     2     3   ar
     8     3    14    1
     9    14    15    1
    10    14    16    1
    11    14    17    1
    12     3     4   ar
    13     4     5   ar
    14     5    18    1
    15    18    19    1
    16    19    20    1
    17    20    21    1
    18    21    28    1
    19    28    29   ar
    20    29    30   ar
    21    30    31   ar
    22    31    32   ar
    23    32    33   ar
    24    21    22    1
    25    22    23    1
    26    23    24    1
    27    24    25    1
    28    25    26    1
    29     5     6   ar
    30    11    12    1
    31    12    13    1
    32    13     8    1
    33     6     1   ar
    34    26    21    1
    35    33    28   ar
    36    24    27    1
@<TRIPOS>MOLECULE
*****
 33 36 0 0 0
SMALL
GASTEIGER

@<TRIPOS>ATOM
      1 C         142.7662  139.5584  162.1048 C.ar    1  UNL1        0.1314
      2 C         141.3974  138.9540  161.9989 C.ar    1  UNL1        0.0382
      3 C         140.8053  138.2282  163.1705 C.ar    1  UNL1        0.0754
      4 C         141.5820  138.1069  164.4480 C.ar    1  UNL1        0.0212
      5 C         142.9507  138.7113  164.5539 C.ar    1  UNL1        0.0901
      6 N         143.5428  139.4370  163.3823 N.ar    1  UNL1       -0.2325
      7 C         145.1346  142.4613  157.4183 C.3     1  UNL1        0.0897
      8 N         144.5425  141.7356  158.5899 N.3     1  UNL1       -0.2686
      9 C         143.9914  140.3516  158.4143 C.3     1  UNL1        0.0939
     10 C         143.3993  139.6259  159.5860 C.3     1  UNL1        0.1095
     11 N         143.3583  140.2841  160.9331 N.pl3   1  UNL1       -0.2904
     12 C         143.9093  141.6681  161.1087 C.3     1  UNL1        0.1095
     13 C         144.5014  142.3939  159.9371 C.3     1  UNL1        0.0939
     14 C         139.4365  137.6238  163.0646 C.3     1  UNL1        0.4187
     15 F         138.0678  137.0194  162.9587 F       1  UNL1       -0.1659
     16 F         139.3824  138.0005  161.6137 F       1  UNL1       -0.1659
     17 F         139.4906  137.2471  164.5155 F       1  UNL1       -0.1659
     18 C         143.7274  138.5900  165.8315 C.3     1  UNL1        0.1875
     19 O         143.0649  138.8905  167.1433 O.3     1  UNL1       -0.3470
     20 C         142.2329  140.1290  167.2970 C.3     1  UNL1        0.1467
     21 C         141.3172  140.2758  168.4760 C.3     1  UNL1        0.0489
     22 C         142.6387  140.1952  169.1810 C.3     1  UNL1        0.0236
     23 C         142.6960  140.2717  170.6780 C.3     1  UNL1        0.0690
     24 N         141.4318  140.4288  171.4699 N.3     1  UNL1       -0.2974
     25 C         140.1103  140.5094  170.7649 C.3     1  UNL1        0.0690
     26 C         140.0530  140.4329  169.2679 C.3     1  UNL1        0.0236
     27 H         141.5289  141.2871  172.0124 H       1  UNL1        0.1232
     28 C         140.3137  140.3054  167.3615 C.ar    1  UNL1       -0.0204
     29 C         139.1218  139.3956  167.4010 C.ar    1  UNL1       -0.0042
     30 C         138.1184  139.4253  166.2865 C.ar    1  UNL1       -0.0003
     31 C         138.3069  140.3647  165.1324 C.ar    1  UNL1       -0.0000
     32 C         139.4987  141.2745  165.0928 C.ar    1  UNL1       -0.0003
     33 C         140.5022  141.2449  166.2074 C.ar    1  UNL1       -0.0042
@<TRIPOS>BOND
     1     7     8    1
     2     8     9    1
     3     9    10    1
     4    10    11    1
     5    11     1    1
     6     1     2   ar
     7     2     3   ar
     8     3    14    1
     9    14    15    1
    10    14    16    1
    11    14    17    1
    12     3     4   ar
    13     4     5   ar
    14     5    18    1
    15    18    19    1
    16    19    20    1
    17    20    21    1
    18    21    28    1
    19    28    29   ar
    20    29    30   ar
    21    30    31   ar
    22    31    32   ar
    23    32    33   ar
    24    21    22    1
    25    22    23    1
    26    23    24    1
    27    24    25    1
    28    25    26    1
    29     5     6   ar
    30    11    12    1
    31    12    13    1
    32    13     8    1
    33     6     1   ar
    34    26    21    1
    35    33    28   ar
    36    24    27    1
@<TRIPOS>MOLECULE
*****
 33 36 0 0 0
SMALL
GASTEIGER

@<TRIPOS>ATOM
      1 C         142.2170  140.4002  163.1138 C.ar    1  UNL1        0.1314
      2 C         142.6402  141.8365  163.2022 C.ar    1  UNL1        0.0382
      3 C         143.2333  142.3668  164.4738 C.ar    1  UNL1        0.0754
      4 C         143.4030  141.4608  165.6571 C.ar    1  UNL1        0.0212
      5 C         142.9798  140.0245  165.5688 C.ar    1  UNL1        0.0901
      6 N         142.3867  139.4942  164.2971 N.ar    1  UNL1       -0.2325
      7 C         139.8450  138.2790  158.0272 C.3     1  UNL1        0.0897
      8 N         140.4380  138.8093  159.2988 N.3     1  UNL1       -0.2686
      9 C         141.8980  138.6162  159.5831 C.3     1  UNL1        0.0939
     10 C         142.4910  139.1465  160.8548 C.3     1  UNL1        0.1095
     11 N         141.6240  139.8699  161.8422 N.pl3   1  UNL1       -0.2904
     12 C         140.1639  140.0630  161.5578 C.3     1  UNL1        0.1095
     13 C         139.5709  139.5327  160.2862 C.3     1  UNL1        0.0939
     14 C         143.6565  143.8032  164.5621 C.3     1  UNL1        0.4187
     15 F         144.0798  145.2395  164.6505 F       1  UNL1       -0.1659
     16 F         142.5047  144.1965  163.6855 F       1  UNL1       -0.1659
     17 F         144.8083  143.4098  165.4387 F       1  UNL1       -0.1659
     18 C         143.1495  139.1184  166.7522 C.3     1  UNL1        0.1875
     19 O         142.4950  139.4596  168.0580 O.3     1  UNL1       -0.3470
     20 C         141.0487  139.8559  168.0910 C.3     1  UNL1        0.1467
     21 C         140.6180  141.0569  168.8798 C.3     1  UNL1        0.0489
     22 C         141.2290  140.2323  169.9737 C.3     1  UNL1        0.0236
     23 C         141.2490  140.7502  171.3813 C.3     1  UNL1        0.0690
     24 N         140.6580  142.0927  171.6950 N.3     1  UNL1       -0.2974
     25 C         140.0470  142.9173  170.6011 C.3     1  UNL1        0.0690
     26 C         140.0270  142.3994  169.1935 C.3     1  UNL1        0.0236
     27 H         141.4042  142.6542  172.1053 H       1  UNL1        0.1232
     28 C         140.1565  141.4644  167.5119 C.ar    1  UNL1       -0.0204
     29 C         139.4597  140.4721  166.6289 C.ar    1  UNL1       -0.0042
     30 C         138.9983  140.8795  165.2611 C.ar    1  UNL1       -0.0003
     31 C         139.2338  142.2794  164.7762 C.ar    1  UNL1       -0.0000
     32 C         139.9306  143.2717  165.6592 C.ar    1  UNL1       -0.0003
     33 C         140.3920  142.8642  167.0271 C.ar    1  UNL1       -0.0042
@<TRIPOS>BOND
     1     7     8    1
     2     8     9    1
     3     9    10    1
     4    10    11    1
     5    11     1    1
     6     1     2   ar
     7     2     3   ar
     8     3    14    1
     9    14    15    1
    10    14    16    1
    11    14    17    1
    12     3     4   ar
    13     4     5   ar
    14     5    18    1
    15    18    19    1
    16    19    20    1
    17    20    21    1
    18    21    28    1
    19    28    29   ar
    20    29    30   ar
    21    30    31   ar
    22    31    32   ar
    23    32    33   ar
    24    21    22    1
    25    22    23    1
    26    23    24    1
    27    24    25    1
    28    25    26    1
    29     5     6   ar
    30    11    12    1
    31    12    13    1
    32    13     8    1
    33     6     1   ar
    34    26    21    1
    35    33    28   ar
    36    24    27    1
@<TRIPOS>MOLECULE
*****
 33 36 0 0 0
SMALL
GASTEIGER

@<TRIPOS>ATOM
      1 C         140.3574  140.3786  163.3266 C.ar    1  UNL1        0.1314
      2 C         140.1845  141.8675  163.3831 C.ar    1  UNL1        0.0382
      3 C         139.6519  142.5140  164.6274 C.ar    1  UNL1        0.0754
      4 C         139.2923  141.6717  165.8152 C.ar    1  UNL1        0.0212
      5 C         139.4652  140.1828  165.7588 C.ar    1  UNL1        0.0901
      6 N         139.9978  139.5362  164.5145 N.ar    1  UNL1       -0.2325
      7 C         142.4877  137.7923  158.3493 C.3     1  UNL1        0.0897
      8 N         141.9551  138.4389  159.5937 N.3     1  UNL1       -0.2686
      9 C         142.9032  138.9633  160.6310 C.3     1  UNL1        0.0939
     10 C         142.3706  139.6098  161.8754 C.3     1  UNL1        0.1095
     11 N         140.8900  139.7320  162.0823 N.pl3   1  UNL1       -0.2904
     12 C         139.9420  139.2076  161.0449 C.3     1  UNL1        0.1095
     13 C         140.4745  138.5610  159.8006 C.3     1  UNL1        0.0939
     14 C         139.4790  144.0030  164.6838 C.3     1  UNL1        0.4187
     15 F         139.3060  145.4919  164.7402 F       1  UNL1       -0.1659
     16 F         140.9684  144.1743  164.7307 F       1  UNL1       -0.1659
     17 F         137.9896  143.8318  164.6369 F       1  UNL1       -0.1659
     18 C         139.1056  139.3404  166.9467 C.3     1  UNL1        0.1875
     19 O         139.7506  139.6030  168.2752 O.3     1  UNL1       -0.3470
     20 C         141.2458  139.6395  168.3889 C.3     1  UNL1        0.1467
     21 C         141.9223  140.8277  169.0060 C.3     1  UNL1        0.0489
     22 C         141.0773  140.3797  170.1615 C.3     1  UNL1        0.0236
     23 C         141.1206  141.1321  171.4584 C.3     1  UNL1        0.0690
     24 N         142.0089  142.3325  171.5998 N.3     1  UNL1       -0.2974
     25 C         142.8539  142.7805  170.4443 C.3     1  UNL1        0.0690
     26 C         142.8106  142.0280  169.1473 C.3     1  UNL1        0.0236
     27 H         142.6458  142.1381  172.3724 H       1  UNL1        0.1232
     28 C         142.5323  140.8630  167.6361 C.ar    1  UNL1       -0.0204
     29 C         142.7777  142.1782  166.9580 C.ar    1  UNL1       -0.0042
     30 C         143.3877  142.2135  165.5881 C.ar    1  UNL1       -0.0003
     31 C         143.7524  140.9335  164.8963 C.ar    1  UNL1       -0.0000
     32 C         143.5070  139.6182  165.5744 C.ar    1  UNL1       -0.0003
     33 C         142.8970  139.5829  166.9443 C.ar    1  UNL1       -0.0042
@<TRIPOS>BOND
     1     7     8    1
     2     8     9    1
     3     9    10    1
     4    10    11    1
     5    11     1    1
     6     1     2   ar
     7     2     3   ar
     8     3    14    1
     9    14    15    1
    10    14    16    1
    11    14    17    1
    12     3     4   ar
    13     4     5   ar
    14     5    18    1
    15    18    19    1
    16    19    20    1
    17    20    21    1
    18    21    28    1
    19    28    29   ar
    20    29    30   ar
    21    30    31   ar
    22    31    32   ar
    23    32    33   ar
    24    21    22    1
    25    22    23    1
    26    23    24    1
    27    24    25    1
    28    25    26    1
    29     5     6   ar
    30    11    12    1
    31    12    13    1
    32    13     8    1
    33     6     1   ar
    34    26    21    1
    35    33    28   ar
    36    24    27    1
