@<TRIPOS>MOLECULE
*****
 31 33 0 0 0
SMALL
GASTEIGER

@<TRIPOS>ATOM
      1 C         140.4626  140.4093  161.2552 C.ar    1  UNL1        0.1629
      2 C         141.1349  140.6859  159.9431 C.ar    1  UNL1        0.1398
      3 C         140.9071  141.9937  159.2447 C.ar    1  UNL1        0.0246
      4 C         140.0070  143.0248  159.8583 C.ar    1  UNL1        0.0386
      5 C         139.3347  142.7482  161.1703 C.ar    1  UNL1        0.1461
      6 C         139.5625  141.4404  161.8687 C.ar    1  UNL1        0.1226
      7 C         138.8902  141.1638  163.1808 C.2     1  UNL1        0.2550
      8 O         137.5216  140.5505  163.2076 O.2     1  UNL1       -0.2697
      9 N         139.5865  141.5005  164.4660 N.am    1  UNL1       -0.2751
     10 C         140.9121  142.1019  164.8282 C.3     1  UNL1        0.0997
     11 C         140.5712  141.9767  166.2836 C.3     1  UNL1        0.0620
     12 C         139.2457  141.3753  165.9214 C.3     1  UNL1        0.0997
     13 C         141.2675  142.3134  167.5688 C.ar    1  UNL1       -0.0192
     14 C         140.5278  143.0357  168.6556 C.ar    1  UNL1       -0.0042
     15 C         141.2242  143.3724  169.9408 C.ar    1  UNL1       -0.0003
     16 C         142.6601  142.9868  170.1392 C.ar    1  UNL1       -0.0000
     17 C         143.3997  142.2645  169.0524 C.ar    1  UNL1       -0.0003
     18 C         142.7034  141.9278  167.7672 C.ar    1  UNL1       -0.0042
     19 S         142.0351  139.6548  159.3295 S.O2    1  UNL1        0.0133
     20 C         142.9353  138.6237  158.7159 C.3     1  UNL1        0.1817
     21 O         143.2077  140.2482  160.0526 O.2     1  UNL1       -0.1685
     22 O         140.8625  139.0614  158.6064 O.2     1  UNL1       -0.1685
     23 C         139.7000  137.9858  161.7984 C.3     1  UNL1        0.2525
     24 O         140.6905  139.1015  161.9536 O.3     1  UNL1       -0.4699
     25 O         138.4345  143.7793  161.7839 O.3     1  UNL1       -0.4701
     26 C         139.0145  144.8713  162.6331 C.3     1  UNL1        0.2600
     27 C         139.7479  146.0114  161.9910 C.3     1  UNL1        0.0566
     28 C         138.8611  144.8232  164.1245 C.3     1  UNL1        0.4340
     29 F         138.7077  144.7751  165.6159 F       1  UNL1       -0.1664
     30 F         137.4584  144.3169  163.9639 F       1  UNL1       -0.1664
     31 F         140.2639  145.3295  164.2852 F       1  UNL1       -0.1664
@<TRIPOS>BOND
     1    23    24    1
     2    24     1    1
     3     1     2   ar
     4     2    19    1
     5    19    20    1
     6    19    21    2
     7    19    22    2
     8     2     3   ar
     9     3     4   ar
    10     4     5   ar
    11     5    25    1
    12    25    26    1
    13    26    27    1
    14    26    28    1
    15    28    29    1
    16    28    30    1
    17    28    31    1
    18     5     6   ar
    19     6     7    1
    20     7     8    2
    21     7     9   am
    22     9    10    1
    23    10    11    1
    24    11    13    1
    25    13    14   ar
    26    14    15   ar
    27    15    16   ar
    28    16    17   ar
    29    17    18   ar
    30    11    12    1
    31     6     1   ar
    32    12     9    1
    33    18    13   ar
@<TRIPOS>MOLECULE
*****
 31 33 0 0 0
SMALL
GASTEIGER

@<TRIPOS>ATOM
      1 C         142.4813  143.2865  161.5833 C.ar    1  UNL1        0.1629
      2 C         141.8472  143.1042  160.2362 C.ar    1  UNL1        0.1398
      3 C         141.8824  141.7627  159.5660 C.ar    1  UNL1        0.0246
      4 C         142.5517  140.6035  160.2429 C.ar    1  UNL1        0.0386
      5 C         143.1857  140.7858  161.5900 C.ar    1  UNL1        0.1461
      6 C         143.1506  142.1273  162.2601 C.ar    1  UNL1        0.1226
      7 C         143.7847  142.3095  163.6073 C.2     1  UNL1        0.2550
      8 O         145.2455  142.6340  163.7109 O.2     1  UNL1       -0.2697
      9 N         142.9580  142.1672  164.8508 N.am    1  UNL1       -0.2751
     10 C         141.5181  141.8597  165.1378 C.3     1  UNL1        0.0997
     11 C         141.7888  141.9659  166.6094 C.3     1  UNL1        0.0620
     12 C         143.2286  142.2734  166.3223 C.3     1  UNL1        0.0997
     13 C         140.9621  141.8236  167.8529 C.ar    1  UNL1       -0.0192
     14 C         140.8469  142.9710  168.8122 C.ar    1  UNL1       -0.0042
     15 C         140.0202  142.8287  170.0557 C.ar    1  UNL1       -0.0003
     16 C         139.3087  141.5390  170.3399 C.ar    1  UNL1       -0.0000
     17 C         139.4240  140.3917  169.3805 C.ar    1  UNL1       -0.0003
     18 C         140.2507  140.5341  168.1370 C.ar    1  UNL1       -0.0042
     19 S         141.1779  144.2635  159.5592 S.O2    1  UNL1        0.0133
     20 C         140.5086  145.4227  158.8823 C.3     1  UNL1        0.1817
     21 O         142.4932  144.6787  158.9698 O.2     1  UNL1       -0.1685
     22 O         139.8625  143.8482  160.1486 O.2     1  UNL1       -0.1685
     23 C         141.3167  144.9754  163.1773 C.3     1  UNL1        0.2525
     24 O         142.4461  144.6280  162.2534 O.3     1  UNL1       -0.4699
     25 O         143.8551  139.6265  162.2669 O.3     1  UNL1       -0.4701
     26 C         143.0777  138.7593  163.2123 C.3     1  UNL1        0.2600
     27 C         141.9619  137.8999  162.6965 C.3     1  UNL1        0.0566
     28 C         143.4163  138.7517  164.6737 C.3     1  UNL1        0.4340
     29 F         143.7549  138.7440  166.1349 F       1  UNL1       -0.1664
     30 F         142.0410  138.2433  164.9896 F       1  UNL1       -0.1664
     31 F         144.7917  139.2601  164.3577 F       1  UNL1       -0.1664
@<TRIPOS>BOND
     1    23    24    1
     2    24     1    1
     3     1     2   ar
     4     2    19    1
     5    19    20    1
     6    19    21    2
     7    19    22    2
     8     2     3   ar
     9     3     4   ar
    10     4     5   ar
    11     5    25    1
    12    25    26    1
    13    26    27    1
    14    26    28    1
    15    28    29    1
    16    28    30    1
    17    28    31    1
    18     5     6   ar
    19     6     7    1
    20     7     8    2
    21     7     9   am
    22     9    10    1
    23    10    11    1
    24    11    13    1
    25    13    14   ar
    26    14    15   ar
    27    15    16   ar
    28    16    17   ar
    29    17    18   ar
    30    11    12    1
    31     6     1   ar
    32    12     9    1
    33    18    13   ar
@<TRIPOS>MOLECULE
*****
 31 33 0 0 0
SMALL
GASTEIGER

@<TRIPOS>ATOM
      1 C         141.3818  142.2464  161.1247 C.ar    1  UNL1        0.1629
      2 C         140.5416  142.6142  159.9378 C.ar    1  UNL1        0.1398
      3 C         139.7743  141.5541  159.2047 C.ar    1  UNL1        0.0246
      4 C         139.8471  140.1263  159.6585 C.ar    1  UNL1        0.0386
      5 C         140.6872  139.7585  160.8454 C.ar    1  UNL1        0.1461
      6 C         141.4546  140.8186  161.5785 C.ar    1  UNL1        0.1226
      7 C         142.2948  140.4507  162.7655 C.2     1  UNL1        0.2550
      8 O         143.6426  139.8237  162.5650 O.2     1  UNL1       -0.2697
      9 N         141.7871  140.7100  164.1530 N.am    1  UNL1       -0.2751
     10 C         140.5349  141.2995  164.7314 C.3     1  UNL1        0.0997
     11 C         141.0692  141.0766  166.1151 C.3     1  UNL1        0.0620
     12 C         142.3213  140.4872  165.5368 C.3     1  UNL1        0.0997
     13 C         140.5615  141.3359  167.5026 C.ar    1  UNL1       -0.0192
     14 C         139.8087  140.2667  168.2378 C.ar    1  UNL1       -0.0042
     15 C         139.3011  140.5260  169.6252 C.ar    1  UNL1       -0.0003
     16 C         139.5462  141.8544  170.2775 C.ar    1  UNL1       -0.0000
     17 C         140.2989  142.9234  169.5424 C.ar    1  UNL1       -0.0003
     18 C         140.8066  142.6642  168.1549 C.ar    1  UNL1       -0.0042
     19 S         140.4688  144.0420  159.4839 S.O2    1  UNL1        0.0133
     20 C         140.3960  145.4698  159.0300 C.3     1  UNL1        0.1817
     21 O         141.6244  143.8063  158.5571 O.2     1  UNL1       -0.1685
     22 O         139.3133  144.2778  160.4108 O.2     1  UNL1       -0.1685
     23 C         143.6127  143.4944  161.5885 C.3     1  UNL1        0.2525
     24 O         142.1492  143.3064  161.8578 O.3     1  UNL1       -0.4699
     25 O         140.7600  138.3306  161.2993 O.3     1  UNL1       -0.4701
     26 C         139.9211  137.8667  162.4530 C.3     1  UNL1        0.2600
     27 C         138.4283  138.0018  162.3969 C.3     1  UNL1        0.0566
     28 C         140.5751  137.2677  163.6628 C.3     1  UNL1        0.4340
     29 F         141.2292  136.6687  164.8725 F       1  UNL1       -0.1664
     30 F         141.8671  137.1557  162.9089 F       1  UNL1       -0.1664
     31 F         139.2832  137.3796  164.4167 F       1  UNL1       -0.1664
@<TRIPOS>BOND
     1    23    24    1
     2    24     1    1
     3     1     2   ar
     4     2    19    1
     5    19    20    1
     6    19    21    2
     7    19    22    2
     8     2     3   ar
     9     3     4   ar
    10     4     5   ar
    11     5    25    1
    12    25    26    1
    13    26    27    1
    14    26    28    1
    15    28    29    1
    16    28    30    1
    17    28    31    1
    18     5     6   ar
    19     6     7    1
    20     7     8    2
    21     7     9   am
    22     9    10    1
    23    10    11    1
    24    11    13    1
    25    13    14   ar
    26    14    15   ar
    27    15    16   ar
    28    16    17   ar
    29    17    18   ar
    30    11    12    1
    31     6     1   ar
    32    12     9    1
    33    18    13   ar
@<TRIPOS>MOLECULE
*****
 31 33 0 0 0
SMALL
GASTEIGER

@<TRIPOS>ATOM
      1 C         139.9670  142.1492  161.6303 C.ar    1  UNL1        0.1629
      2 C         140.5894  142.5197  160.3168 C.ar    1  UNL1        0.1398
      3 C         141.2845  141.4749  159.4950 C.ar    1  UNL1        0.0246
      4 C         141.3571  140.0597  159.9867 C.ar    1  UNL1        0.0386
      5 C         140.7346  139.6892  161.3001 C.ar    1  UNL1        0.1461
      6 C         140.0396  140.7340  162.1219 C.ar    1  UNL1        0.1226
      7 C         139.4171  140.3634  163.4355 C.2     1  UNL1        0.2550
      8 O         138.2054  139.4799  163.4685 O.2     1  UNL1       -0.2697
      9 N         140.0064  140.8764  164.7159 N.am    1  UNL1       -0.2751
     10 C         141.1719  141.7512  165.0716 C.3     1  UNL1        0.0997
     11 C         140.8397  141.6020  166.5267 C.3     1  UNL1        0.0620
     12 C         139.6743  140.7273  166.1711 C.3     1  UNL1        0.0997
     13 C         141.4290  142.1150  167.8072 C.ar    1  UNL1       -0.0192
     14 C         140.5999  142.9595  168.7289 C.ar    1  UNL1       -0.0042
     15 C         141.1892  143.4726  170.0094 C.ar    1  UNL1       -0.0003
     16 C         142.6075  143.1410  170.3681 C.ar    1  UNL1       -0.0000
     17 C         143.4365  142.2965  169.4464 C.ar    1  UNL1       -0.0003
     18 C         142.8472  141.7835  168.1659 C.ar    1  UNL1       -0.0042
     19 S         140.5168  143.9350  159.8251 S.O2    1  UNL1        0.0133
     20 C         140.4442  145.3502  159.3334 C.3     1  UNL1        0.1817
     21 O         139.1839  143.6492  159.1994 O.2     1  UNL1       -0.1685
     22 O         141.8498  144.2208  160.4509 O.2     1  UNL1       -0.1685
     23 C         137.7733  143.2396  162.4955 C.3     1  UNL1        0.2525
     24 O         139.2719  143.1939  162.4521 O.3     1  UNL1       -0.4699
     25 O         140.8072  138.2739  161.7918 O.3     1  UNL1       -0.4701
     26 C         141.6994  137.9259  162.9464 C.3     1  UNL1        0.2600
     27 C         141.1761  137.0824  164.0709 C.3     1  UNL1        0.0566
     28 C         143.1149  138.4214  162.9763 C.3     1  UNL1        0.4340
     29 F         144.5304  138.9168  163.0061 F       1  UNL1       -0.1664
     30 F         143.4004  137.6824  161.7025 F       1  UNL1       -0.1664
     31 F         142.8294  139.1603  164.2500 F       1  UNL1       -0.1664
@<TRIPOS>BOND
     1    23    24    1
     2    24     1    1
     3     1     2   ar
     4     2    19    1
     5    19    20    1
     6    19    21    2
     7    19    22    2
     8     2     3   ar
     9     3     4   ar
    10     4     5   ar
    11     5    25    1
    12    25    26    1
    13    26    27    1
    14    26    28    1
    15    28    29    1
    16    28    30    1
    17    28    31    1
    18     5     6   ar
    19     6     7    1
    20     7     8    2
    21     7     9   am
    22     9    10    1
    23    10    11    1
    24    11    13    1
    25    13    14   ar
    26    14    15   ar
    27    15    16   ar
    28    16    17   ar
    29    17    18   ar
    30    11    12    1
    31     6     1   ar
    32    12     9    1
    33    18    13   ar
@<TRIPOS>MOLECULE
*****
 31 33 0 0 0
SMALL
GASTEIGER

@<TRIPOS>ATOM
      1 C         142.1132  143.3688  160.3738 C.ar    1  UNL1        0.1629
      2 C         142.2384  142.6782  159.0482 C.ar    1  UNL1        0.1398
      3 C         141.0212  142.1108  158.3801 C.ar    1  UNL1        0.0246
      4 C         139.6787  142.2340  159.0377 C.ar    1  UNL1        0.0386
      5 C         139.5534  142.9246  160.3633 C.ar    1  UNL1        0.1461
      6 C         140.7707  143.4920  161.0313 C.ar    1  UNL1        0.1226
      7 C         140.6454  144.1827  162.3570 C.2     1  UNL1        0.2550
      8 O         140.3929  145.6602  162.4120 O.2     1  UNL1       -0.2697
      9 N         140.7726  143.3957  163.6277 N.am    1  UNL1       -0.2751
     10 C         141.0167  141.9540  163.9625 C.3     1  UNL1        0.0997
     11 C         140.9524  142.2828  165.4246 C.3     1  UNL1        0.0620
     12 C         140.7083  143.7243  165.0898 C.3     1  UNL1        0.0997
     13 C         141.0795  141.4958  166.6952 C.ar    1  UNL1       -0.0192
     14 C         142.4133  141.3718  167.3703 C.ar    1  UNL1       -0.0042
     15 C         142.5405  140.5848  168.6410 C.ar    1  UNL1       -0.0003
     16 C         141.3339  139.9218  169.2365 C.ar    1  UNL1       -0.0000
     17 C         140.0002  140.0458  168.5614 C.ar    1  UNL1       -0.0003
     18 C         139.8730  140.8328  167.2907 C.ar    1  UNL1       -0.0042
     19 S         143.5810  142.5550  158.3905 S.O2    1  UNL1        0.0133
     20 C         144.9235  142.4318  157.7329 C.3     1  UNL1        0.1817
     21 O         143.3579  143.8626  157.6902 O.2     1  UNL1       -0.1685
     22 O         143.8041  141.2475  159.0908 O.2     1  UNL1       -0.1685
     23 C         144.0866  143.1162  162.0446 C.3     1  UNL1        0.2525
     24 O         143.3305  143.9363  161.0418 O.3     1  UNL1       -0.4699
     25 O         138.2109  143.0478  161.0210 O.3     1  UNL1       -0.4701
     26 C         137.7853  142.0438  162.0510 C.3     1  UNL1        0.2600
     27 C         137.6399  140.5991  161.6749 C.3     1  UNL1        0.0566
     28 C         137.5052  142.4847  163.4572 C.3     1  UNL1        0.4340
     29 F         137.2251  142.9255  164.8633 F       1  UNL1       -0.1664
     30 F         137.3475  143.8987  162.9824 F       1  UNL1       -0.1664
     31 F         137.6630  141.0706  163.9320 F       1  UNL1       -0.1664
@<TRIPOS>BOND
     1    23    24    1
     2    24     1    1
     3     1     2   ar
     4     2    19    1
     5    19    20    1
     6    19    21    2
     7    19    22    2
     8     2     3   ar
     9     3     4   ar
    10     4     5   ar
    11     5    25    1
    12    25    26    1
    13    26    27    1
    14    26    28    1
    15    28    29    1
    16    28    30    1
    17    28    31    1
    18     5     6   ar
    19     6     7    1
    20     7     8    2
    21     7     9   am
    22     9    10    1
    23    10    11    1
    24    11    13    1
    25    13    14   ar
    26    14    15   ar
    27    15    16   ar
    28    16    17   ar
    29    17    18   ar
    30    11    12    1
    31     6     1   ar
    32    12     9    1
    33    18    13   ar
@<TRIPOS>MOLECULE
*****
 31 33 0 0 0
SMALL
GASTEIGER

@<TRIPOS>ATOM
      1 C         139.8894  143.1638  160.9085 C.ar    1  UNL1        0.1629
      2 C         140.7172  143.2957  159.6646 C.ar    1  UNL1        0.1398
      3 C         141.6440  142.1880  159.2595 C.ar    1  UNL1        0.0246
      4 C         141.7430  140.9484  160.0983 C.ar    1  UNL1        0.0386
      5 C         140.9151  140.8165  161.3421 C.ar    1  UNL1        0.1461
      6 C         139.9883  141.9242  161.7472 C.ar    1  UNL1        0.1226
      7 C         139.1605  141.7922  162.9912 C.2     1  UNL1        0.2550
      8 O         137.7046  141.4458  162.8899 O.2     1  UNL1       -0.2697
      9 N         139.7886  142.0067  164.3363 N.am    1  UNL1       -0.2751
     10 C         141.1651  142.3537  164.8210 C.3     1  UNL1        0.0997
     11 C         140.6769  142.3101  166.2387 C.3     1  UNL1        0.0620
     12 C         139.3005  141.9631  165.7540 C.3     1  UNL1        0.0997
     13 C         141.3050  142.5246  167.5838 C.ar    1  UNL1       -0.0192
     14 C         142.7214  142.0949  167.8273 C.ar    1  UNL1       -0.0042
     15 C         143.3495  142.3094  169.1725 C.ar    1  UNL1       -0.0003
     16 C         142.5613  142.9536  170.2741 C.ar    1  UNL1       -0.0000
     17 C         141.1449  143.3833  170.0306 C.ar    1  UNL1       -0.0003
     18 C         140.5168  143.1688  168.6855 C.ar    1  UNL1       -0.0042
     19 S         140.6183  144.5354  158.8258 S.O2    1  UNL1        0.0133
     20 C         140.5194  145.7749  157.9870 C.3     1  UNL1        0.1817
     21 O         139.5173  143.9056  158.0251 O.2     1  UNL1       -0.1685
     22 O         141.7193  145.1651  159.6265 O.2     1  UNL1       -0.1685
     23 C         139.4144  145.3026  162.3049 C.3     1  UNL1        0.2525
     24 O         138.9626  144.2715  161.3136 O.3     1  UNL1       -0.4699
     25 O         141.0140  139.5769  162.1810 O.3     1  UNL1       -0.4701
     26 C         139.8754  138.6010  162.2142 C.3     1  UNL1        0.2600
     27 C         139.1927  138.2013  160.9398 C.3     1  UNL1        0.0566
     28 C         139.4194  138.0248  163.5220 C.3     1  UNL1        0.4340
     29 F         138.9634  137.4487  164.8297 F       1  UNL1       -0.1664
     30 F         138.4047  137.1889  162.7998 F       1  UNL1       -0.1664
     31 F         140.4341  138.8608  164.2442 F       1  UNL1       -0.1664
@<TRIPOS>BOND
     1    23    24    1
     2    24     1    1
     3     1     2   ar
     4     2    19    1
     5    19    20    1
     6    19    21    2
     7    19    22    2
     8     2     3   ar
     9     3     4   ar
    10     4     5   ar
    11     5    25    1
    12    25    26    1
    13    26    27    1
    14    26    28    1
    15    28    29    1
    16    28    30    1
    17    28    31    1
    18     5     6   ar
    19     6     7    1
    20     7     8    2
    21     7     9   am
    22     9    10    1
    23    10    11    1
    24    11    13    1
    25    13    14   ar
    26    14    15   ar
    27    15    16   ar
    28    16    17   ar
    29    17    18   ar
    30    11    12    1
    31     6     1   ar
    32    12     9    1
    33    18    13   ar
@<TRIPOS>MOLECULE
*****
 31 33 0 0 0
SMALL
GASTEIGER

@<TRIPOS>ATOM
      1 C         141.2029  140.9028  161.0750 C.ar    1  UNL1        0.1629
      2 C         141.7291  139.7836  160.2261 C.ar    1  UNL1        0.1398
      3 C         141.2206  138.3869  160.4273 C.ar    1  UNL1        0.0246
      4 C         140.1860  138.1093  161.4773 C.ar    1  UNL1        0.0386
      5 C         139.6598  139.2285  162.3261 C.ar    1  UNL1        0.1461
      6 C         140.1683  140.6253  162.1249 C.ar    1  UNL1        0.1226
      7 C         139.6421  141.7445  162.9738 C.2     1  UNL1        0.2550
      8 O         138.5673  142.6465  162.4436 O.2     1  UNL1       -0.2697
      9 N         140.1908  141.9617  164.3528 N.am    1  UNL1       -0.2751
     10 C         141.2325  141.2901  165.1979 C.3     1  UNL1        0.0997
     11 C         140.9668  142.2688  166.3031 C.3     1  UNL1        0.0620
     12 C         139.9253  142.9404  165.4581 C.3     1  UNL1        0.0997
     13 C         141.5155  142.4860  167.6821 C.ar    1  UNL1       -0.0192
     14 C         142.9511  142.1662  167.9771 C.ar    1  UNL1       -0.0042
     15 C         143.4998  142.3834  169.3561 C.ar    1  UNL1       -0.0003
     16 C         142.6129  142.9204  170.4402 C.ar    1  UNL1       -0.0000
     17 C         141.1774  143.2402  170.1452 C.ar    1  UNL1       -0.0003
     18 C         140.6287  143.0230  168.7662 C.ar    1  UNL1       -0.0042
     19 S         142.7638  140.0612  159.1761 S.O2    1  UNL1        0.0133
     20 C         143.7984  140.3387  158.1261 C.3     1  UNL1        0.1817
     21 O         141.6787  140.2624  158.1602 O.2     1  UNL1       -0.1685
     22 O         143.8488  139.8599  160.1920 O.2     1  UNL1       -0.1685
     23 C         140.9919  143.2335  159.9464 C.3     1  UNL1        0.2525
     24 O         141.7114  142.2996  160.8738 O.3     1  UNL1       -0.4699
     25 O         138.6251  138.9510  163.3761 O.3     1  UNL1       -0.4701
     26 C         139.0353  138.3772  164.7000 C.3     1  UNL1        0.2600
     27 C         140.3413  137.6511  164.8305 C.3     1  UNL1        0.0566
     28 C         138.1393  138.5296  165.8933 C.3     1  UNL1        0.4340
     29 F         137.2433  138.6821  167.0866 F       1  UNL1       -0.1664
     30 F         138.1254  140.0161  165.6930 F       1  UNL1       -0.1664
     31 F         138.1532  137.0432  166.0937 F       1  UNL1       -0.1664
@<TRIPOS>BOND
     1    23    24    1
     2    24     1    1
     3     1     2   ar
     4     2    19    1
     5    19    20    1
     6    19    21    2
     7    19    22    2
     8     2     3   ar
     9     3     4   ar
    10     4     5   ar
    11     5    25    1
    12    25    26    1
    13    26    27    1
    14    26    28    1
    15    28    29    1
    16    28    30    1
    17    28    31    1
    18     5     6   ar
    19     6     7    1
    20     7     8    2
    21     7     9   am
    22     9    10    1
    23    10    11    1
    24    11    13    1
    25    13    14   ar
    26    14    15   ar
    27    15    16   ar
    28    16    17   ar
    29    17    18   ar
    30    11    12    1
    31     6     1   ar
    32    12     9    1
    33    18    13   ar
@<TRIPOS>MOLECULE
*****
 31 33 0 0 0
SMALL
GASTEIGER

@<TRIPOS>ATOM
      1 C         142.0791  141.7019  160.1404 C.ar    1  UNL1        0.1629
      2 C         142.6421  142.5536  159.0415 C.ar    1  UNL1        0.1398
      3 C         141.9708  143.8435  158.6735 C.ar    1  UNL1        0.0246
      4 C         140.7364  144.2818  159.4045 C.ar    1  UNL1        0.0386
      5 C         140.1735  143.4301  160.5034 C.ar    1  UNL1        0.1461
      6 C         140.8448  142.1401  160.8713 C.ar    1  UNL1        0.1226
      7 C         140.2817  141.2884  161.9703 C.2     1  UNL1        0.2550
      8 O         139.3851  140.1325  161.6388 O.2     1  UNL1       -0.2697
      9 N         140.6153  141.5927  163.4007 N.am    1  UNL1       -0.2751
     10 C         141.4472  142.6275  164.0989 C.3     1  UNL1        0.0997
     11 C         141.0872  142.0230  165.4236 C.3     1  UNL1        0.0620
     12 C         140.2554  140.9883  164.7255 C.3     1  UNL1        0.0997
     13 C         141.4208  142.3272  166.8541 C.ar    1  UNL1       -0.0192
     14 C         140.3775  142.9119  167.7595 C.ar    1  UNL1       -0.0042
     15 C         140.7111  143.2161  169.1899 C.ar    1  UNL1       -0.0003
     16 C         142.0880  142.9357  169.7149 C.ar    1  UNL1       -0.0000
     17 C         143.1312  142.3511  168.8095 C.ar    1  UNL1       -0.0003
     18 C         142.7976  142.0469  167.3790 C.ar    1  UNL1       -0.0042
     19 S         143.8765  142.1154  158.3105 S.O2    1  UNL1        0.0133
     20 C         145.1108  141.6771  157.5795 C.3     1  UNL1        0.1817
     21 O         143.0242  141.4748  157.2554 O.2     1  UNL1       -0.1685
     22 O         144.7288  142.7559  159.3656 O.2     1  UNL1       -0.1685
     23 C         143.7201  140.3707  161.6520 C.3     1  UNL1        0.2525
     24 O         142.7504  140.4120  160.5083 O.3     1  UNL1       -0.4699
     25 O         138.9391  143.8683  161.2344 O.3     1  UNL1       -0.4701
     26 C         139.0589  144.6959  162.4797 C.3     1  UNL1        0.2600
     27 C         139.9903  145.8713  162.5123 C.3     1  UNL1        0.0566
     28 C         138.2475  144.3481  163.6924 C.3     1  UNL1        0.4340
     29 F         137.4360  144.0002  164.9050 F       1  UNL1       -0.1664
     30 F         137.3687  143.4694  162.8523 F       1  UNL1       -0.1664
     31 F         139.1262  145.2267  164.5325 F       1  UNL1       -0.1664
@<TRIPOS>BOND
     1    23    24    1
     2    24     1    1
     3     1     2   ar
     4     2    19    1
     5    19    20    1
     6    19    21    2
     7    19    22    2
     8     2     3   ar
     9     3     4   ar
    10     4     5   ar
    11     5    25    1
    12    25    26    1
    13    26    27    1
    14    26    28    1
    15    28    29    1
    16    28    30    1
    17    28    31    1
    18     5     6   ar
    19     6     7    1
    20     7     8    2
    21     7     9   am
    22     9    10    1
    23    10    11    1
    24    11    13    1
    25    13    14   ar
    26    14    15   ar
    27    15    16   ar
    28    16    17   ar
    29    17    18   ar
    30    11    12    1
    31     6     1   ar
    32    12     9    1
    33    18    13   ar
@<TRIPOS>MOLECULE
*****
 31 33 0 0 0
SMALL
GASTEIGER

@<TRIPOS>ATOM
      1 C         143.5142  140.2078  160.3245 C.ar    1  UNL1        0.1629
      2 C         142.7323  140.0693  159.0519 C.ar    1  UNL1        0.1398
      3 C         142.0930  141.2750  158.4295 C.ar    1  UNL1        0.0246
      4 C         142.2355  142.6192  159.0796 C.ar    1  UNL1        0.0386
      5 C         143.0174  142.7577  160.3521 C.ar    1  UNL1        0.1461
      6 C         143.6567  141.5520  160.9746 C.ar    1  UNL1        0.1226
      7 C         144.4386  141.6905  162.2472 C.2     1  UNL1        0.2550
      8 O         145.9099  141.9780  162.1960 O.2     1  UNL1       -0.2697
      9 N         143.7492  141.5417  163.5710 N.am    1  UNL1       -0.2751
     10 C         142.3417  141.2625  164.0085 C.3     1  UNL1        0.0997
     11 C         142.7741  141.3311  165.4431 C.3     1  UNL1        0.0620
     12 C         144.1814  141.6103  165.0057 C.3     1  UNL1        0.0997
     13 C         142.0846  141.1823  166.7670 C.ar    1  UNL1       -0.0192
     14 C         142.3531  139.9788  167.6212 C.ar    1  UNL1       -0.0042
     15 C         141.6636  139.8299  168.9451 C.ar    1  UNL1       -0.0003
     16 C         140.7057  140.8845  169.4146 C.ar    1  UNL1       -0.0000
     17 C         140.4373  142.0879  168.5603 C.ar    1  UNL1       -0.0003
     18 C         141.1268  142.2368  167.2365 C.ar    1  UNL1       -0.0042
     19 S         142.5898  138.7250  158.4017 S.O2    1  UNL1        0.0133
     20 C         142.4473  137.3808  157.7516 C.3     1  UNL1        0.1817
     21 O         143.8350  138.9784  157.6049 O.2     1  UNL1       -0.1685
     22 O         141.3445  138.4716  159.1986 O.2     1  UNL1       -0.1685
     23 C         143.4279  138.2338  162.0114 C.3     1  UNL1        0.2525
     24 O         144.1535  139.0020  160.9469 O.3     1  UNL1       -0.4699
     25 O         143.1599  144.1020  161.0023 O.3     1  UNL1       -0.4701
     26 C         142.3421  144.4398  162.2135 C.3     1  UNL1        0.2600
     27 C         140.8561  144.2363  162.1956 C.3     1  UNL1        0.0566
     28 C         143.0103  144.9812  163.4425 C.3     1  UNL1        0.4340
     29 F         143.6785  145.5225  164.6715 F       1  UNL1       -0.1664
     30 F         144.3356  144.9368  162.7415 F       1  UNL1       -0.1664
     31 F         141.6849  145.0256  164.1436 F       1  UNL1       -0.1664
@<TRIPOS>BOND
     1    23    24    1
     2    24     1    1
     3     1     2   ar
     4     2    19    1
     5    19    20    1
     6    19    21    2
     7    19    22    2
     8     2     3   ar
     9     3     4   ar
    10     4     5   ar
    11     5    25    1
    12    25    26    1
    13    26    27    1
    14    26    28    1
    15    28    29    1
    16    28    30    1
    17    28    31    1
    18     5     6   ar
    19     6     7    1
    20     7     8    2
    21     7     9   am
    22     9    10    1
    23    10    11    1
    24    11    13    1
    25    13    14   ar
    26    14    15   ar
    27    15    16   ar
    28    16    17   ar
    29    17    18   ar
    30    11    12    1
    31     6     1   ar
    32    12     9    1
    33    18    13   ar
