@<TRIPOS>MOLECULE
*****
 40 44 0 0 0
SMALL
GASTEIGER

@<TRIPOS>ATOM
      1 N         139.6701  141.7948  159.4917 N.am    1  UNL1       -0.2766
      2 C         138.7559  141.7648  160.6805 C.2     1  UNL1        0.2673
      3 O         137.8015  142.8967  160.9213 O.2     1  UNL1       -0.2682
      4 H         140.2965  141.0519  159.3336 H       1  UNL1        0.1553
      5 C         140.0648  144.3593  158.8494 C.ar    1  UNL1        0.1688
      6 N         139.8516  145.1893  157.6183 N.ar    1  UNL1       -0.1632
      7 N         139.2851  144.2995  156.5518 N.ar    1  UNL1       -0.2459
      8 C         138.9197  144.7165  155.1580 C.3     1  UNL1        0.1538
      9 C         139.1482  142.9196  157.1238 C.ar    1  UNL1        0.1115
     10 C         139.6300  142.9566  158.5438 C.ar    1  UNL1        0.0937
     11 N         139.7011  145.4621  161.1736 N.am    1  UNL1       -0.2995
     12 C         140.6160  144.8465  160.1566 C.2     1  UNL1        0.2666
     13 O         142.0820  144.7181  160.4470 O.2     1  UNL1       -0.2684
     14 H         138.7389  145.5463  160.9830 H       1  UNL1        0.1498
     15 C         140.2523  145.9492  162.4808 C.3     1  UNL1        0.0911
     16 C         143.5978  143.0576  165.2095 C.3     1  UNL1        0.0896
     17 N         142.1974  143.5302  164.9536 N.3     1  UNL1       -0.2715
     18 C         141.0694  143.0297  165.8062 C.3     1  UNL1        0.0721
     19 C         139.6690  143.5023  165.5503 C.3     1  UNL1        0.0174
     20 C         139.3966  144.4755  164.4419 C.3     1  UNL1        0.0045
     21 C         140.5246  144.9760  163.5893 C.3     1  UNL1        0.0356
     22 C         141.9250  144.5034  163.8452 C.3     1  UNL1        0.0738
     23 C         138.7960  140.6030  161.6284 C.ar    1  UNL1        0.1347
     24 C         138.0250  139.3544  161.3175 C.ar    1  UNL1        0.0238
     25 C         138.0651  138.1926  162.2655 C.ar    1  UNL1        0.0032
     26 C         138.8761  138.2794  163.5243 C.ar    1  UNL1        0.0192
     27 C         139.6470  139.5280  163.8352 C.ar    1  UNL1        0.0816
     28 N         139.6070  140.6898  162.8873 N.ar    1  UNL1       -0.2408
     29 C         140.4580  139.6147  165.0941 C.ar    1  UNL1        0.0220
     30 C         141.9551  139.6704  165.0195 C.ar    1  UNL1        0.0223
     31 C         142.7661  139.7571  166.2785 C.ar    1  UNL1        0.1003
     32 N         142.0798  139.7881  167.6120 N.ar    1  UNL1       -0.2294
     33 C         140.5827  139.7325  167.6865 C.ar    1  UNL1        0.1286
     34 C         139.7718  139.6458  166.4276 C.ar    1  UNL1        0.0356
     35 N         139.8965  139.7636  169.0200 N.pl3   1  UNL1       -0.3181
     36 H         139.7708  138.9300  169.5285 H       1  UNL1        0.1482
     37 C         139.4019  141.0648  169.5787 C.3     1  UNL1        0.0881
     38 C         140.2887  142.2744  169.5602 C.3     1  UNL1        0.0196
     39 C         141.6615  142.8784  169.5352 C.3     1  UNL1        0.0017
     40 C         140.4521  143.7655  169.5531 C.3     1  UNL1        0.0017
@<TRIPOS>BOND
     1    16    17    1
     2    17    18    1
     3    18    19    1
     4    19    20    1
     5    20    21    1
     6    21    15    1
     7    15    11    1
     8    11    12   am
     9    12    13    2
    10    12     5    1
    11     5     6   ar
    12     6     7   ar
    13     7     8    1
    14     7     9   ar
    15     9    10   ar
    16    10     1    1
    17     1     2   am
    18     2     3    2
    19     2    23    1
    20    23    24   ar
    21    24    25   ar
    22    25    26   ar
    23    26    27   ar
    24    27    29    1
    25    29    30   ar
    26    30    31   ar
    27    31    32   ar
    28    32    33   ar
    29    33    35    1
    30    35    37    1
    31    37    38    1
    32    38    39    1
    33    39    40    1
    34    33    34   ar
    35    27    28   ar
    36    21    22    1
    37    22    17    1
    38    10     5   ar
    39    28    23   ar
    40    34    29   ar
    41    40    38    1
    42    11    14    1
    43     1     4    1
    44    35    36    1
@<TRIPOS>MOLECULE
*****
 40 44 0 0 0
SMALL
GASTEIGER

@<TRIPOS>ATOM
      1 N         143.5501  142.6070  159.4994 N.am    1  UNL1       -0.2766
      2 C         144.1243  142.5783  160.8848 C.2     1  UNL1        0.2673
      3 O         145.3329  141.7398  161.1784 O.2     1  UNL1       -0.2682
      4 H         142.7568  143.1573  159.3066 H       1  UNL1        0.1553
      5 C         144.1153  140.3058  158.2623 C.ar    1  UNL1        0.1688
      6 N         144.8873  139.9235  157.0344 N.ar    1  UNL1       -0.1632
      7 N         145.4336  141.1785  156.4208 N.ar    1  UNL1       -0.2459
      8 C         146.2678  141.2611  155.1769 C.3     1  UNL1        0.1538
      9 C         144.9991  142.3366  157.2696 C.ar    1  UNL1        0.1115
     10 C         144.1843  141.7972  158.4076 C.ar    1  UNL1        0.0937
     11 N         144.0554  138.9150  160.4560 N.am    1  UNL1       -0.2995
     12 C         143.3998  139.3624  159.1831 C.2     1  UNL1        0.2666
     13 O         142.0286  138.8664  158.8313 O.2     1  UNL1       -0.2684
     14 H         144.9554  139.2406  160.6869 H       1  UNL1        0.1498
     15 C         143.3399  137.9716  161.3768 C.3     1  UNL1        0.0911
     16 C         143.5781  141.4596  165.2210 C.3     1  UNL1        0.0896
     17 N         143.0440  140.1724  164.6661 N.3     1  UNL1       -0.2715
     18 C         142.0950  139.3420  165.4783 C.3     1  UNL1        0.0721
     19 C         141.5610  138.0548  164.9234 C.3     1  UNL1        0.0174
     20 C         141.9759  137.5980  163.5563 C.3     1  UNL1        0.0045
     21 C         142.9249  138.4284  162.7440 C.3     1  UNL1        0.0356
     22 C         143.4590  139.7156  163.2989 C.3     1  UNL1        0.0738
     23 C         143.4900  143.3881  161.9765 C.ar    1  UNL1        0.1347
     24 C         144.2930  144.4251  162.7043 C.ar    1  UNL1        0.0238
     25 C         143.6587  145.2349  163.7960 C.ar    1  UNL1        0.0032
     26 C         142.2214  145.0077  164.1600 C.ar    1  UNL1        0.0192
     27 C         141.4184  143.9706  163.4321 C.ar    1  UNL1        0.0816
     28 N         142.0527  143.1608  162.3404 N.ar    1  UNL1       -0.2408
     29 C         139.9811  143.7434  163.7961 C.ar    1  UNL1        0.0220
     30 C         139.2753  144.7081  164.7024 C.ar    1  UNL1        0.0223
     31 C         137.8379  144.4808  165.0664 C.ar    1  UNL1        0.1003
     32 N         137.1064  143.2889  164.5240 N.ar    1  UNL1       -0.2294
     33 C         137.8121  142.3242  163.6178 C.ar    1  UNL1        0.1286
     34 C         139.2494  142.5515  163.2539 C.ar    1  UNL1        0.0356
     35 N         137.0806  141.1323  163.0755 N.pl3   1  UNL1       -0.3181
     36 H         136.2943  140.7790  163.5511 H       1  UNL1        0.1482
     37 C         137.5471  140.4787  161.8086 C.3     1  UNL1        0.0881
     38 C         138.2492  139.1542  161.8624 C.3     1  UNL1        0.0196
     39 C         138.4760  137.8304  162.5304 C.3     1  UNL1        0.0017
     40 C         139.2383  138.1839  161.2878 C.3     1  UNL1        0.0017
@<TRIPOS>BOND
     1    16    17    1
     2    17    18    1
     3    18    19    1
     4    19    20    1
     5    20    21    1
     6    21    15    1
     7    15    11    1
     8    11    12   am
     9    12    13    2
    10    12     5    1
    11     5     6   ar
    12     6     7   ar
    13     7     8    1
    14     7     9   ar
    15     9    10   ar
    16    10     1    1
    17     1     2   am
    18     2     3    2
    19     2    23    1
    20    23    24   ar
    21    24    25   ar
    22    25    26   ar
    23    26    27   ar
    24    27    29    1
    25    29    30   ar
    26    30    31   ar
    27    31    32   ar
    28    32    33   ar
    29    33    35    1
    30    35    37    1
    31    37    38    1
    32    38    39    1
    33    39    40    1
    34    33    34   ar
    35    27    28   ar
    36    21    22    1
    37    22    17    1
    38    10     5   ar
    39    28    23   ar
    40    34    29   ar
    41    40    38    1
    42    11    14    1
    43     1     4    1
    44    35    36    1
@<TRIPOS>MOLECULE
*****
 40 44 0 0 0
SMALL
GASTEIGER

@<TRIPOS>ATOM
      1 N         141.3665  142.5198  160.4321 N.am    1  UNL1       -0.2766
      2 C         141.5144  143.4806  161.5744 C.2     1  UNL1        0.2673
      3 O         142.7036  144.3927  161.6380 O.2     1  UNL1       -0.2682
      4 H         140.5860  141.9212  160.3904 H       1  UNL1        0.1553
      5 C         143.8160  141.9789  159.5088 C.ar    1  UNL1        0.1688
      6 N         144.5019  142.1096  158.1813 N.ar    1  UNL1       -0.1632
      7 N         143.5175  142.6826  157.2053 N.ar    1  UNL1       -0.2459
      8 C         143.7811  142.9800  155.7589 C.3     1  UNL1        0.1538
      9 C         142.2230  142.9060  157.9297 C.ar    1  UNL1        0.1115
     10 C         142.4076  142.4711  159.3533 C.ar    1  UNL1        0.0937
     11 N         145.0440  142.3944  161.7604 N.am    1  UNL1       -0.2995
     12 C         144.4306  141.4491  160.7704 C.2     1  UNL1        0.2666
     13 O         144.4318  139.9738  161.0420 O.2     1  UNL1       -0.2684
     14 H         145.0432  143.3627  161.5822 H       1  UNL1        0.1498
     15 C         145.6586  141.8646  163.0219 C.3     1  UNL1        0.0911
     16 C         143.1421  138.4961  166.0750 C.3     1  UNL1        0.0896
     17 N         143.5381  139.9047  165.7445 N.3     1  UNL1       -0.2715
     18 C         143.0719  141.0375  166.6101 C.3     1  UNL1        0.0721
     19 C         143.4678  142.4461  166.2796 C.3     1  UNL1        0.0174
     20 C         144.3301  142.7217  165.0836 C.3     1  UNL1        0.0045
     21 C         144.7963  141.5889  164.2180 C.3     1  UNL1        0.0356
     22 C         144.4003  140.1804  164.5485 C.3     1  UNL1        0.0738
     23 C         140.4733  143.5293  162.6532 C.ar    1  UNL1        0.1347
     24 C         139.6382  144.7621  162.8344 C.ar    1  UNL1        0.0238
     25 C         138.5971  144.8108  163.9132 C.ar    1  UNL1        0.0032
     26 C         138.3911  143.6268  164.8107 C.ar    1  UNL1        0.0192
     27 C         139.2262  142.3940  164.6294 C.ar    1  UNL1        0.0816
     28 N         140.2673  142.3453  163.5507 N.ar    1  UNL1       -0.2408
     29 C         139.0202  141.2100  165.5269 C.ar    1  UNL1        0.0220
     30 C         138.1367  140.0803  165.0873 C.ar    1  UNL1        0.0223
     31 C         137.9307  138.8962  165.9850 C.ar    1  UNL1        0.1003
     32 N         138.6081  138.8419  167.3222 N.ar    1  UNL1       -0.2294
     33 C         139.4915  139.9716  167.7618 C.ar    1  UNL1        0.1286
     34 C         139.6976  141.1556  166.8642 C.ar    1  UNL1        0.0356
     35 N         140.1690  139.9173  169.0990 N.pl3   1  UNL1       -0.3181
     36 H         140.7857  139.1792  169.3088 H       1  UNL1        0.1482
     37 C         139.9067  140.9877  170.1166 C.3     1  UNL1        0.0881
     38 C         140.5584  142.3315  169.9766 C.3     1  UNL1        0.0196
     39 C         141.7858  143.1920  170.0319 C.3     1  UNL1        0.0017
     40 C         140.4600  143.7983  169.6789 C.3     1  UNL1        0.0017
@<TRIPOS>BOND
     1    16    17    1
     2    17    18    1
     3    18    19    1
     4    19    20    1
     5    20    21    1
     6    21    15    1
     7    15    11    1
     8    11    12   am
     9    12    13    2
    10    12     5    1
    11     5     6   ar
    12     6     7   ar
    13     7     8    1
    14     7     9   ar
    15     9    10   ar
    16    10     1    1
    17     1     2   am
    18     2     3    2
    19     2    23    1
    20    23    24   ar
    21    24    25   ar
    22    25    26   ar
    23    26    27   ar
    24    27    29    1
    25    29    30   ar
    26    30    31   ar
    27    31    32   ar
    28    32    33   ar
    29    33    35    1
    30    35    37    1
    31    37    38    1
    32    38    39    1
    33    39    40    1
    34    33    34   ar
    35    27    28   ar
    36    21    22    1
    37    22    17    1
    38    10     5   ar
    39    28    23   ar
    40    34    29   ar
    41    40    38    1
    42    11    14    1
    43     1     4    1
    44    35    36    1
@<TRIPOS>MOLECULE
*****
 40 44 0 0 0
SMALL
GASTEIGER

@<TRIPOS>ATOM
      1 N         142.2420  144.1984  160.4311 N.am    1  UNL1       -0.2766
      2 C         141.7958  144.6542  161.7887 C.2     1  UNL1        0.2673
      3 O         140.5193  145.4277  161.9381 O.2     1  UNL1       -0.2682
      4 H         143.0798  143.6908  160.3330 H       1  UNL1        0.1553
      5 C         140.0805  143.9134  158.8846 C.ar    1  UNL1        0.1688
      6 N         139.6130  144.5171  157.5935 N.ar    1  UNL1       -0.1632
      7 N         140.6554  145.4929  157.1338 N.ar    1  UNL1       -0.2459
      8 C         140.5964  146.3235  155.8862 C.3     1  UNL1        0.1538
      9 C         141.7671  145.4923  158.1409 C.ar    1  UNL1        0.1115
     10 C         141.4118  144.5161  159.2229 C.ar    1  UNL1        0.0937
     11 N         138.6428  143.2910  160.9572 N.am    1  UNL1       -0.2995
     12 C         139.3457  142.8872  159.6951 C.2     1  UNL1        0.2666
     13 O         139.3139  141.4571  159.2436 O.2     1  UNL1       -0.2684
     14 H         138.6636  144.2296  161.2535 H       1  UNL1        0.1498
     15 C         137.9080  142.2648  161.7677 C.3     1  UNL1        0.0911
     16 C         138.3109  138.8975  165.7045 C.3     1  UNL1        0.0896
     17 N         138.5641  140.2593  165.1288 N.3     1  UNL1       -0.2715
     18 C         139.2720  141.2991  165.9458 C.3     1  UNL1        0.0721
     19 C         139.5252  142.6609  165.3701 C.3     1  UNL1        0.0174
     20 C         139.0705  142.9828  163.9774 C.3     1  UNL1        0.0045
     21 C         138.3627  141.9429  163.1604 C.3     1  UNL1        0.0356
     22 C         138.1095  140.5811  163.7361 C.3     1  UNL1        0.0738
     23 C         142.6261  144.3365  162.9969 C.ar    1  UNL1        0.1347
     24 C         143.5280  145.3819  163.5832 C.ar    1  UNL1        0.0238
     25 C         144.3582  145.0642  164.7914 C.ar    1  UNL1        0.0032
     26 C         144.2865  143.7011  165.4134 C.ar    1  UNL1        0.0192
     27 C         143.3846  142.6557  164.8271 C.ar    1  UNL1        0.0816
     28 N         142.5544  142.9734  163.6189 N.ar    1  UNL1       -0.2408
     29 C         143.3130  141.2927  165.4491 C.ar    1  UNL1        0.0220
     30 C         143.7933  140.0939  164.6860 C.ar    1  UNL1        0.0223
     31 C         143.7216  138.7307  165.3081 C.ar    1  UNL1        0.1003
     32 N         143.1698  138.5665  166.6932 N.ar    1  UNL1       -0.2294
     33 C         142.6895  139.7653  167.4562 C.ar    1  UNL1        0.1286
     34 C         142.7611  141.1283  166.8342 C.ar    1  UNL1        0.0356
     35 N         142.1376  139.6011  168.8413 N.pl3   1  UNL1       -0.3181
     36 H         142.5777  138.9922  169.4776 H       1  UNL1        0.1482
     37 C         140.9152  140.3646  169.2569 C.3     1  UNL1        0.0881
     38 C         140.9872  141.8511  169.4446 C.3     1  UNL1        0.0196
     39 C         140.3723  143.2109  169.2931 C.3     1  UNL1        0.0017
     40 C         141.7268  143.0661  169.9211 C.3     1  UNL1        0.0017
@<TRIPOS>BOND
     1    16    17    1
     2    17    18    1
     3    18    19    1
     4    19    20    1
     5    20    21    1
     6    21    15    1
     7    15    11    1
     8    11    12   am
     9    12    13    2
    10    12     5    1
    11     5     6   ar
    12     6     7   ar
    13     7     8    1
    14     7     9   ar
    15     9    10   ar
    16    10     1    1
    17     1     2   am
    18     2     3    2
    19     2    23    1
    20    23    24   ar
    21    24    25   ar
    22    25    26   ar
    23    26    27   ar
    24    27    29    1
    25    29    30   ar
    26    30    31   ar
    27    31    32   ar
    28    32    33   ar
    29    33    35    1
    30    35    37    1
    31    37    38    1
    32    38    39    1
    33    39    40    1
    34    33    34   ar
    35    27    28   ar
    36    21    22    1
    37    22    17    1
    38    10     5   ar
    39    28    23   ar
    40    34    29   ar
    41    40    38    1
    42    11    14    1
    43     1     4    1
    44    35    36    1
@<TRIPOS>MOLECULE
*****
 40 44 0 0 0
SMALL
GASTEIGER

@<TRIPOS>ATOM
      1 N         143.2127  141.0541  160.2532 N.am    1  UNL1       -0.2766
      2 C         143.8295  141.5625  161.5224 C.2     1  UNL1        0.2673
      3 O         144.5550  142.8754  161.5302 O.2     1  UNL1       -0.2682
      4 H         142.7366  140.1924  160.2480 H       1  UNL1        0.1553
      5 C         142.5704  143.1197  158.6829 C.ar    1  UNL1        0.1688
      6 N         142.9849  143.5836  157.3180 N.ar    1  UNL1       -0.1632
      7 N         143.9921  142.6091  156.7833 N.ar    1  UNL1       -0.2459
      8 C         144.6721  142.6871  155.4485 C.3     1  UNL1        0.1538
      9 C         144.2001  141.5429  157.8178 C.ar    1  UNL1        0.1115
     10 C         143.3214  141.8585  158.9918 C.ar    1  UNL1        0.0937
     11 N         142.0317  144.4019  160.8774 N.am    1  UNL1       -0.2995
     12 C         141.5789  143.7979  159.5811 C.2     1  UNL1        0.2666
     13 O         140.1345  143.8723  159.1832 O.2     1  UNL1       -0.2684
     14 H         142.9797  144.3531  161.1386 H       1  UNL1        0.1498
     15 C         141.0403  145.0801  161.7757 C.3     1  UNL1        0.0911
     16 C         137.2853  141.7897  163.2155 C.3     1  UNL1        0.0896
     17 N         138.4619  142.6516  163.5658 N.3     1  UNL1       -0.2715
     18 C         138.9375  142.7303  164.9861 C.3     1  UNL1        0.0721
     19 C         140.1141  143.5923  165.3364 C.3     1  UNL1        0.0174
     20 C         140.8150  144.3755  164.2663 C.3     1  UNL1        0.0045
     21 C         140.3394  144.2968  162.8459 C.3     1  UNL1        0.0356
     22 C         139.1628  143.4349  162.4957 C.3     1  UNL1        0.0738
     23 C         143.7209  140.7581  162.7838 C.ar    1  UNL1        0.1347
     24 C         144.9475  140.1412  163.3879 C.ar    1  UNL1        0.0238
     25 C         144.8389  139.3368  164.6493 C.ar    1  UNL1        0.0032
     26 C         143.5036  139.1494  165.3066 C.ar    1  UNL1        0.0192
     27 C         142.2771  139.7663  164.7025 C.ar    1  UNL1        0.0816
     28 N         142.3857  140.5707  163.4411 N.ar    1  UNL1       -0.2408
     29 C         140.9419  139.5787  165.3598 C.ar    1  UNL1        0.0220
     30 C         139.7787  139.0673  164.5628 C.ar    1  UNL1        0.0223
     31 C         138.4434  138.8798  165.2203 C.ar    1  UNL1        0.1003
     32 N         138.2716  139.2037  166.6748 N.ar    1  UNL1       -0.2294
     33 C         139.4348  139.7151  167.4718 C.ar    1  UNL1        0.1286
     34 C         140.7699  139.9026  166.8144 C.ar    1  UNL1        0.0356
     35 N         139.2629  140.0390  168.9263 N.pl3   1  UNL1       -0.3181
     36 H         138.3857  139.9195  169.3569 H       1  UNL1        0.1482
     37 C         140.4276  140.5451  169.7246 C.3     1  UNL1        0.0881
     38 C         140.7523  142.0096  169.7318 C.3     1  UNL1        0.0196
     39 C         141.7469  143.1187  169.9065 C.3     1  UNL1        0.0017
     40 C         140.3202  143.4368  169.5696 C.3     1  UNL1        0.0017
@<TRIPOS>BOND
     1    16    17    1
     2    17    18    1
     3    18    19    1
     4    19    20    1
     5    20    21    1
     6    21    15    1
     7    15    11    1
     8    11    12   am
     9    12    13    2
    10    12     5    1
    11     5     6   ar
    12     6     7   ar
    13     7     8    1
    14     7     9   ar
    15     9    10   ar
    16    10     1    1
    17     1     2   am
    18     2     3    2
    19     2    23    1
    20    23    24   ar
    21    24    25   ar
    22    25    26   ar
    23    26    27   ar
    24    27    29    1
    25    29    30   ar
    26    30    31   ar
    27    31    32   ar
    28    32    33   ar
    29    33    35    1
    30    35    37    1
    31    37    38    1
    32    38    39    1
    33    39    40    1
    34    33    34   ar
    35    27    28   ar
    36    21    22    1
    37    22    17    1
    38    10     5   ar
    39    28    23   ar
    40    34    29   ar
    41    40    38    1
    42    11    14    1
    43     1     4    1
    44    35    36    1
@<TRIPOS>MOLECULE
*****
 40 44 0 0 0
SMALL
GASTEIGER

@<TRIPOS>ATOM
      1 N         140.2674  143.3189  160.8993 N.am    1  UNL1       -0.2766
      2 C         139.1155  143.2097  161.8538 C.2     1  UNL1        0.2673
      3 O         137.7242  143.0092  161.3303 O.2     1  UNL1       -0.2682
      4 H         141.1806  143.4504  161.2429 H       1  UNL1        0.1553
      5 C         139.8168  141.9656  158.6386 C.ar    1  UNL1        0.1688
      6 N         139.6162  142.3404  157.2001 N.ar    1  UNL1       -0.1632
      7 N         139.7035  143.8341  157.0938 N.ar    1  UNL1       -0.2459
      8 C         139.5611  144.6383  155.8356 C.3     1  UNL1        0.1538
      9 C         139.9580  144.3825  158.4666 C.ar    1  UNL1        0.1115
     10 C         140.0281  143.2277  159.4213 C.ar    1  UNL1        0.0937
     11 N         138.7096  140.1439  160.1236 N.am    1  UNL1       -0.2995
     12 C         139.8078  140.5732  159.1964 C.2     1  UNL1        0.2666
     13 O         140.8968  139.6102  158.8270 O.2     1  UNL1       -0.2684
     14 H         137.9948  140.7759  160.3661 H       1  UNL1        0.1498
     15 C         138.7005  138.7515  160.6814 C.3     1  UNL1        0.0911
     16 C         138.0972  139.4544  165.7944 C.3     1  UNL1        0.0896
     17 N         138.8539  138.8560  164.6457 N.3     1  UNL1       -0.2715
     18 C         140.0656  138.0107  164.9049 C.3     1  UNL1        0.0721
     19 C         140.8223  137.4124  163.7563 C.3     1  UNL1        0.0174
     20 C         140.3673  137.6593  162.3485 C.3     1  UNL1        0.0045
     21 C         139.1556  138.5045  162.0893 C.3     1  UNL1        0.0356
     22 C         138.3989  139.1029  163.2379 C.3     1  UNL1        0.0738
     23 C         139.3548  143.3009  163.3317 C.ar    1  UNL1        0.1347
     24 C         138.7544  144.4266  164.1207 C.ar    1  UNL1        0.0238
     25 C         138.9938  144.5178  165.5986 C.ar    1  UNL1        0.0032
     26 C         139.8335  143.4834  166.2877 C.ar    1  UNL1        0.0192
     27 C         140.4339  142.3577  165.4987 C.ar    1  UNL1        0.0816
     28 N         140.1946  142.2665  164.0208 N.ar    1  UNL1       -0.2408
     29 C         141.2736  141.3233  166.1878 C.ar    1  UNL1        0.0220
     30 C         141.0410  141.0120  167.6366 C.ar    1  UNL1        0.0223
     31 C         141.8808  139.9776  168.3257 C.ar    1  UNL1        0.1003
     32 N         142.9531  139.2544  167.5660 N.ar    1  UNL1       -0.2294
     33 C         143.1857  139.5657  166.1172 C.ar    1  UNL1        0.1286
     34 C         142.3460  140.6001  165.4281 C.ar    1  UNL1        0.0356
     35 N         144.2580  138.8426  165.3574 N.pl3   1  UNL1       -0.3181
     36 H         144.5873  137.9722  165.6787 H       1  UNL1        0.1482
     37 C         144.8287  139.4457  164.1082 C.3     1  UNL1        0.0881
     38 C         144.2506  139.0882  162.7710 C.3     1  UNL1        0.0196
     39 C         143.5682  139.4974  161.4994 C.3     1  UNL1        0.0017
     40 C         143.9319  138.0599  161.7264 C.3     1  UNL1        0.0017
@<TRIPOS>BOND
     1    16    17    1
     2    17    18    1
     3    18    19    1
     4    19    20    1
     5    20    21    1
     6    21    15    1
     7    15    11    1
     8    11    12   am
     9    12    13    2
    10    12     5    1
    11     5     6   ar
    12     6     7   ar
    13     7     8    1
    14     7     9   ar
    15     9    10   ar
    16    10     1    1
    17     1     2   am
    18     2     3    2
    19     2    23    1
    20    23    24   ar
    21    24    25   ar
    22    25    26   ar
    23    26    27   ar
    24    27    29    1
    25    29    30   ar
    26    30    31   ar
    27    31    32   ar
    28    32    33   ar
    29    33    35    1
    30    35    37    1
    31    37    38    1
    32    38    39    1
    33    39    40    1
    34    33    34   ar
    35    27    28   ar
    36    21    22    1
    37    22    17    1
    38    10     5   ar
    39    28    23   ar
    40    34    29   ar
    41    40    38    1
    42    11    14    1
    43     1     4    1
    44    35    36    1
@<TRIPOS>MOLECULE
*****
 40 44 0 0 0
SMALL
GASTEIGER

@<TRIPOS>ATOM
      1 N         140.6917  142.5678  159.7859 N.am    1  UNL1       -0.2766
      2 C         140.3549  142.8753  161.2149 C.2     1  UNL1        0.2673
      3 O         138.9250  143.0744  161.6222 O.2     1  UNL1       -0.2682
      4 H         141.6301  142.4371  159.5185 H       1  UNL1        0.1553
      5 C         138.6173  141.3320  158.6393 C.ar    1  UNL1        0.1688
      6 N         137.7073  141.6352  157.4861 N.ar    1  UNL1       -0.1632
      7 N         138.1264  142.9501  156.8983 N.ar    1  UNL1       -0.2459
      8 C         137.4884  143.6354  155.7263 C.3     1  UNL1        0.1538
      9 C         139.2953  143.4595  157.6883 C.ar    1  UNL1        0.1115
     10 C         139.5987  142.4594  158.7643 C.ar    1  UNL1        0.0937
     11 N         137.7335  140.1328  160.7679 N.am    1  UNL1       -0.2995
     12 C         138.5565  140.1149  159.5140 C.2     1  UNL1        0.2666
     13 O         139.3187  138.8799  159.1347 O.2     1  UNL1       -0.2684
     14 H         137.2332  140.9434  161.0169 H       1  UNL1        0.1498
     15 C         137.6727  138.9158  161.6426 C.3     1  UNL1        0.0911
     16 C         139.2548  141.3604  165.9462 C.3     1  UNL1        0.0896
     17 N         139.1921  140.1196  165.1056 N.3     1  UNL1       -0.2715
     18 C         139.8578  138.8605  165.5760 C.3     1  UNL1        0.0721
     19 C         139.7951  137.6198  164.7354 C.3     1  UNL1        0.0174
     20 C         139.0667  137.6382  163.4243 C.3     1  UNL1        0.0045
     21 C         138.4011  138.8973  162.9538 C.3     1  UNL1        0.0356
     22 C         138.4638  140.1381  163.7944 C.3     1  UNL1        0.0738
     23 C         141.4478  142.9837  162.2365 C.ar    1  UNL1        0.1347
     24 C         142.3347  144.1932  162.2606 C.ar    1  UNL1        0.0238
     25 C         143.4277  144.3015  163.2822 C.ar    1  UNL1        0.0032
     26 C         143.6337  143.2004  164.2797 C.ar    1  UNL1        0.0192
     27 C         142.7468  141.9909  164.2556 C.ar    1  UNL1        0.0816
     28 N         141.6539  141.8825  163.2340 N.ar    1  UNL1       -0.2408
     29 C         142.9530  140.8898  165.2531 C.ar    1  UNL1        0.0220
     30 C         143.5489  139.5843  164.8168 C.ar    1  UNL1        0.0223
     31 C         143.7550  138.4832  165.8145 C.ar    1  UNL1        0.1003
     32 N         143.3652  138.6877  167.2484 N.ar    1  UNL1       -0.2294
     33 C         142.7693  139.9933  167.6848 C.ar    1  UNL1        0.1286
     34 C         142.5632  141.0943  166.6872 C.ar    1  UNL1        0.0356
     35 N         142.3794  140.1978  169.1187 N.pl3   1  UNL1       -0.3181
     36 H         143.0585  140.1282  169.8282 H       1  UNL1        0.1482
     37 C         140.9550  140.5083  169.4717 C.3     1  UNL1        0.0881
     38 C         140.5141  141.9338  169.6255 C.3     1  UNL1        0.0196
     39 C         140.3791  143.3193  169.0667 C.3     1  UNL1        0.0017
     40 C         139.8856  143.0174  170.4507 C.3     1  UNL1        0.0017
@<TRIPOS>BOND
     1    16    17    1
     2    17    18    1
     3    18    19    1
     4    19    20    1
     5    20    21    1
     6    21    15    1
     7    15    11    1
     8    11    12   am
     9    12    13    2
    10    12     5    1
    11     5     6   ar
    12     6     7   ar
    13     7     8    1
    14     7     9   ar
    15     9    10   ar
    16    10     1    1
    17     1     2   am
    18     2     3    2
    19     2    23    1
    20    23    24   ar
    21    24    25   ar
    22    25    26   ar
    23    26    27   ar
    24    27    29    1
    25    29    30   ar
    26    30    31   ar
    27    31    32   ar
    28    32    33   ar
    29    33    35    1
    30    35    37    1
    31    37    38    1
    32    38    39    1
    33    39    40    1
    34    33    34   ar
    35    27    28   ar
    36    21    22    1
    37    22    17    1
    38    10     5   ar
    39    28    23   ar
    40    34    29   ar
    41    40    38    1
    42    11    14    1
    43     1     4    1
    44    35    36    1
@<TRIPOS>MOLECULE
*****
 40 44 0 0 0
SMALL
GASTEIGER

@<TRIPOS>ATOM
      1 N         141.0070  142.8466  160.3902 N.am    1  UNL1       -0.2766
      2 C         141.4844  143.5860  161.6049 C.2     1  UNL1        0.2673
      3 O         142.8377  144.2331  161.6051 O.2     1  UNL1       -0.2682
      4 H         140.1188  142.4219  160.3900 H       1  UNL1        0.1553
      5 C         143.1020  141.8926  159.0317 C.ar    1  UNL1        0.1688
      6 N         143.6658  142.1132  157.6593 N.ar    1  UNL1       -0.1632
      7 N         142.7949  143.1112  156.9553 N.ar    1  UNL1       -0.2459
      8 C         142.9915  143.6231  155.5591 C.3     1  UNL1        0.1538
      9 C         141.6928  143.5074  157.8927 C.ar    1  UNL1        0.1115
     10 C         141.8827  142.7543  159.1759 C.ar    1  UNL1        0.0937
     11 N         143.2810  139.5206  160.0764 N.am    1  UNL1       -0.2995
     12 C         143.6597  140.9720  160.0764 C.2     1  UNL1        0.2666
     13 O         144.5961  141.5028  161.1211 O.2     1  UNL1       -0.2684
     14 H         142.6664  139.1722  159.3907 H       1  UNL1        0.1498
     15 C         143.8386  138.5999  161.1211 C.3     1  UNL1        0.0911
     16 C         143.3057  138.8254  166.2849 C.3     1  UNL1        0.0896
     17 N         142.7794  138.4157  164.9413 N.3     1  UNL1       -0.2715
     18 C         141.4605  137.7091  164.8361 C.3     1  UNL1        0.0721
     19 C         140.9343  137.2994  163.4925 C.3     1  UNL1        0.0174
     20 C         141.7270  137.5963  162.2542 C.3     1  UNL1        0.0045
     21 C         143.0459  138.3030  162.3594 C.3     1  UNL1        0.0356
     22 C         143.5721  138.7127  163.7030 C.3     1  UNL1        0.0738
     23 C         140.6087  143.6783  162.8192 C.ar    1  UNL1        0.1347
     24 C         139.9761  144.9869  163.1899 C.ar    1  UNL1        0.0238
     25 C         139.1004  145.0793  164.4042 C.ar    1  UNL1        0.0032
     26 C         138.8572  143.8630  165.2478 C.ar    1  UNL1        0.0192
     27 C         139.4898  142.5544  164.8770 C.ar    1  UNL1        0.0816
     28 N         140.3655  142.4621  163.6627 N.ar    1  UNL1       -0.2408
     29 C         139.2465  141.3382  165.7206 C.ar    1  UNL1        0.0220
     30 C         138.3635  140.2373  165.2124 C.ar    1  UNL1        0.0223
     31 C         138.1203  139.0210  166.0561 C.ar    1  UNL1        0.1003
     32 N         138.7601  138.9058  167.4079 N.ar    1  UNL1       -0.2294
     33 C         139.6431  140.0067  167.9161 C.ar    1  UNL1        0.1286
     34 C         139.8863  141.2229  167.0724 C.ar    1  UNL1        0.0356
     35 N         140.2829  139.8915  169.2679 N.pl3   1  UNL1       -0.3181
     36 H         139.7243  139.7544  170.0668 H       1  UNL1        0.1482
     37 C         141.7739  139.9853  169.4023 C.3     1  UNL1        0.0881
     38 C         142.4214  141.3129  169.6638 C.3     1  UNL1        0.0196
     39 C         143.6368  142.1917  169.6441 C.3     1  UNL1        0.0017
     40 C         142.3275  142.7334  170.1363 C.3     1  UNL1        0.0017
@<TRIPOS>BOND
     1    16    17    1
     2    17    18    1
     3    18    19    1
     4    19    20    1
     5    20    21    1
     6    21    15    1
     7    15    11    1
     8    11    12   am
     9    12    13    2
    10    12     5    1
    11     5     6   ar
    12     6     7   ar
    13     7     8    1
    14     7     9   ar
    15     9    10   ar
    16    10     1    1
    17     1     2   am
    18     2     3    2
    19     2    23    1
    20    23    24   ar
    21    24    25   ar
    22    25    26   ar
    23    26    27   ar
    24    27    29    1
    25    29    30   ar
    26    30    31   ar
    27    31    32   ar
    28    32    33   ar
    29    33    35    1
    30    35    37    1
    31    37    38    1
    32    38    39    1
    33    39    40    1
    34    33    34   ar
    35    27    28   ar
    36    21    22    1
    37    22    17    1
    38    10     5   ar
    39    28    23   ar
    40    34    29   ar
    41    40    38    1
    42    11    14    1
    43     1     4    1
    44    35    36    1
@<TRIPOS>MOLECULE
*****
 40 44 0 0 0
SMALL
GASTEIGER

@<TRIPOS>ATOM
      1 N         140.0098  143.3369  160.4471 N.am    1  UNL1       -0.2766
      2 C         141.2423  142.5914  160.8658 C.2     1  UNL1        0.2673
      3 O         141.6619  141.3584  160.1219 O.2     1  UNL1       -0.2682
      4 H         139.7344  144.1461  160.9353 H       1  UNL1        0.1553
      5 C         138.2875  141.6565  159.2830 C.ar    1  UNL1        0.1688
      6 N         137.6795  141.5390  157.9168 N.ar    1  UNL1       -0.1632
      7 N         138.2133  142.6591  157.0739 N.ar    1  UNL1       -0.2459
      8 C         137.8696  142.9230  155.6379 C.3     1  UNL1        0.1538
      9 C         139.1513  143.4689  157.9192 C.ar    1  UNL1        0.1115
     10 C         139.1971  142.8493  159.2845 C.ar    1  UNL1        0.0937
     11 N         138.2618  139.2666  160.3016 N.am    1  UNL1       -0.2995
     12 C         138.0309  140.7419  160.4438 C.2     1  UNL1        0.2666
     13 O         137.5435  141.3026  161.7469 O.2     1  UNL1       -0.2684
     14 H         138.5817  138.8986  159.4464 H       1  UNL1        0.1498
     15 C         138.0052  138.3520  161.4625 C.3     1  UNL1        0.0911
     16 C         143.0644  138.0114  162.5980 C.3     1  UNL1        0.0896
     17 N         141.6285  137.8966  163.0164 N.3     1  UNL1       -0.2715
     18 C         141.2863  137.4968  164.4210 C.3     1  UNL1        0.0721
     19 C         139.8505  137.3820  164.8395 C.3     1  UNL1        0.0174
     20 C         138.7568  137.6671  163.8534 C.3     1  UNL1        0.0045
     21 C         139.0990  138.0669  162.4488 C.3     1  UNL1        0.0356
     22 C         140.5348  138.1817  162.0303 C.3     1  UNL1        0.0738
     23 C         142.0550  143.0790  162.0285 C.ar    1  UNL1        0.1347
     24 C         142.8636  144.3362  161.9037 C.ar    1  UNL1        0.0238
     25 C         143.6763  144.8238  163.0663 C.ar    1  UNL1        0.0032
     26 C         143.6805  144.0541  164.3537 C.ar    1  UNL1        0.0192
     27 C         142.8719  142.7969  164.4786 C.ar    1  UNL1        0.0816
     28 N         142.0591  142.3093  163.3159 N.ar    1  UNL1       -0.2408
     29 C         142.8761  142.0273  165.7661 C.ar    1  UNL1        0.0220
     30 C         142.4189  140.5988  165.7875 C.ar    1  UNL1        0.0223
     31 C         142.4232  139.8292  167.0752 C.ar    1  UNL1        0.1003
     32 N         142.8846  140.4882  168.3412 N.ar    1  UNL1       -0.2294
     33 C         143.3417  141.9166  168.3197 C.ar    1  UNL1        0.1286
     34 C         143.3375  142.6862  167.0322 C.ar    1  UNL1        0.0356
     35 N         143.8031  142.5756  169.5858 N.pl3   1  UNL1       -0.3181
     36 H         144.7655  142.6925  169.7575 H       1  UNL1        0.1482
     37 C         142.7982  143.0564  170.5902 C.3     1  UNL1        0.0881
     38 C         141.3500  143.1578  170.2128 C.3     1  UNL1        0.0196
     39 C         139.9072  142.8754  170.5104 C.3     1  UNL1        0.0017
     40 C         140.2844  143.6158  169.2617 C.3     1  UNL1        0.0017
@<TRIPOS>BOND
     1    16    17    1
     2    17    18    1
     3    18    19    1
     4    19    20    1
     5    20    21    1
     6    21    15    1
     7    15    11    1
     8    11    12   am
     9    12    13    2
    10    12     5    1
    11     5     6   ar
    12     6     7   ar
    13     7     8    1
    14     7     9   ar
    15     9    10   ar
    16    10     1    1
    17     1     2   am
    18     2     3    2
    19     2    23    1
    20    23    24   ar
    21    24    25   ar
    22    25    26   ar
    23    26    27   ar
    24    27    29    1
    25    29    30   ar
    26    30    31   ar
    27    31    32   ar
    28    32    33   ar
    29    33    35    1
    30    35    37    1
    31    37    38    1
    32    38    39    1
    33    39    40    1
    34    33    34   ar
    35    27    28   ar
    36    21    22    1
    37    22    17    1
    38    10     5   ar
    39    28    23   ar
    40    34    29   ar
    41    40    38    1
    42    11    14    1
    43     1     4    1
    44    35    36    1
