@<TRIPOS>MOLECULE
*****
 42 48 0 0 0
SMALL
GASTEIGER

@<TRIPOS>ATOM
      1 C         142.3910  141.7723  161.0339 C.3     1  UNL1        0.1354
      2 N         142.5328  140.9022  159.8203 N.3     1  UNL1       -0.2823
      3 C         142.7950  139.4336  159.9768 C.3     1  UNL1        0.1166
      4 C         142.9152  138.8351  161.3470 C.3     1  UNL1        0.0511
      5 C         142.7734  139.7051  162.5606 C.2     1  UNL1       -0.0038
      6 C         142.5112  141.1737  162.4040 C.2     1  UNL1        0.0768
      7 N         142.4184  141.7766  163.7744 N.2     1  UNL1       -0.2520
      8 C         142.6231  140.6806  164.7779 C.2     1  UNL1        0.0627
      9 C         142.6381  140.6830  166.2777 C.3     1  UNL1        0.0717
     10 C         142.8725  139.4052  167.0274 C.2     1  UNL1       -0.0198
     11 C         143.0919  138.1249  166.2773 C.2     1  UNL1       -0.0042
     12 C         143.0769  138.1225  164.7774 C.2     1  UNL1        0.0006
     13 C         142.8425  139.4004  164.0277 C.2     1  UNL1        0.0111
     14 H         143.3056  141.2826  159.2739 H       1  UNL1        0.1245
     15 C         140.1479  145.2461  157.7502 C.3     1  UNL1        0.1537
     16 N         141.1672  144.3933  158.4458 N.ar    1  UNL1       -0.2476
     17 C         140.8966  143.4318  159.5650 C.ar    1  UNL1        0.0944
     18 C         142.1982  142.7965  159.9551 C.ar    1  UNL1        0.0407
     19 C         143.2732  143.3653  159.0771 C.ar    1  UNL1        0.1193
     20 N         142.6360  144.3522  158.1443 N.ar    1  UNL1       -0.1679
     21 C         142.1822  142.9981  161.8729 C.ar    1  UNL1        0.0810
     22 C         143.3523  143.8584  162.2479 C.ar    1  UNL1        0.0167
     23 C         143.1436  145.0842  163.0869 C.ar    1  UNL1        0.0029
     24 C         141.7648  145.4495  163.5509 C.ar    1  UNL1        0.0203
     25 CA        140.5946  144.5892  163.1759 C.ar    1  UNL1        0.0949
     26 N         140.8034  143.3634  162.3368 N.ar    1  UNL1       -0.2465
     27 C         139.2158  144.9545  163.6398 C.2     1  UNL1        0.0905
     28 O         138.1097  145.1270  162.6415 O.co2   1  UNL1       -0.5430
     29 OXT       138.9431  145.1474  165.1022 O.co2   1  UNL1       -0.5430
     30 C         142.9368  138.5635  158.7632 C.ar    1  UNL1        0.1318
     31 N         142.5857  137.1078  158.6761 N.ar    1  UNL1       -0.2298
     32 C         142.8866  136.6409  157.2827 C.ar    1  UNL1        0.0996
     33 C         143.4237  137.8081  156.5087 C.ar    1  UNL1        0.0927
     34 N         143.4548  138.9963  157.4236 N.ar    1  UNL1       -0.3386
     35 H         143.7613  139.9013  157.1866 H       1  UNL1        0.1672
     36 C         142.6856  135.2509  156.7559 C.ar    1  UNL1        0.0193
     37 C         143.4318  134.1021  157.3670 C.ar    1  UNL1        0.0039
     38 C         143.2309  132.7121  156.8403 C.ar    1  UNL1        0.0297
     39 C         142.2837  132.4709  155.7024 C.ar    1  UNL1        0.1401
     40 F         142.0827  131.0809  155.1756 F       1  UNL1       -0.2042
     41 C         141.5375  133.6197  155.0914 C.ar    1  UNL1        0.0297
     42 C         141.7384  135.0097  155.6181 C.ar    1  UNL1        0.0039
@<TRIPOS>UNITY_ATOM_ATTR
28 1
charge -1
@<TRIPOS>BOND
     1    15    16    1
     2    16    17   ar
     3    17    18   ar
     4     1    18    1
     5     1    21    1
     6    21    22   ar
     7    22    23   ar
     8    23    24   ar
     9    24    25   ar
    10    25    27    1
    11    27    28   ar
    12    27    29   ar
    13    25    26   ar
    14     1     2    1
    15     2     3    1
    16     3    30    1
    17    30    31   ar
    18    31    32   ar
    19    32    36    1
    20    36    37   ar
    21    37    38   ar
    22    38    39   ar
    23    39    40    1
    24    39    41   ar
    25    41    42   ar
    26    32    33   ar
    27    33    34   ar
    28     3     4    1
    29     4     5    1
    30     5     6    2
    31     6     7    1
    32     7     8    2
    33     8     9    1
    34     9    10    1
    35    10    11    2
    36    11    12    1
    37    12    13    2
    38    18    19   ar
    39    19    20   ar
    40    20    16   ar
    41     6     1    1
    42    13     8    1
    43    26    21   ar
    44    34    30   ar
    45    13     5    1
    46    42    36   ar
    47     2    14    1
    48    34    35    1
@<TRIPOS>MOLECULE
*****
 42 48 0 0 0
SMALL
GASTEIGER

@<TRIPOS>ATOM
      1 C         141.9696  142.2389  160.4264 C.3     1  UNL1        0.1354
      2 N         141.5510  142.9145  159.1542 N.3     1  UNL1       -0.2823
      3 C         140.5279  144.0110  159.1889 C.3     1  UNL1        0.1166
      4 C         139.9234  144.4318  160.4956 C.3     1  UNL1        0.0511
      5 C         140.3420  143.7562  161.7677 C.2     1  UNL1       -0.0038
      6 C         141.3651  142.6598  161.7331 C.2     1  UNL1        0.0768
      7 N         141.5791  142.1811  163.1385 N.2     1  UNL1       -0.2520
      8 C         140.6884  142.9816  164.0416 C.2     1  UNL1        0.0627
      9 C         140.4747  142.9499  165.5260 C.3     1  UNL1        0.0717
     10 C         139.4965  143.8917  166.1631 C.2     1  UNL1       -0.0198
     11 C         138.7319  144.8652  165.3159 C.2     1  UNL1       -0.0042
     12 C         138.9455  144.8969  163.8316 C.2     1  UNL1        0.0006
     13 C         139.9238  143.9551  163.1944 C.2     1  UNL1        0.0111
     14 H         141.1822  142.1869  158.5420 H       1  UNL1        0.1245
     15 C         145.5860  141.1321  156.7416 C.3     1  UNL1        0.1537
     16 N         144.4845  140.9848  157.7492 N.ar    1  UNL1       -0.2476
     17 C         143.8900  142.0883  158.5732 C.ar    1  UNL1        0.0944
     18 C         142.8223  141.4936  159.4429 C.ar    1  UNL1        0.0407
     19 C         142.7569  140.0226  159.1564 C.ar    1  UNL1        0.1193
     20 N         143.7843  139.7082  158.1096 N.ar    1  UNL1       -0.1679
     21 C         142.6843  141.3045  161.3570 C.ar    1  UNL1        0.0810
     22 C         144.0996  141.5890  161.7644 C.ar    1  UNL1        0.0167
     23 C         144.8144  140.6545  162.6950 C.ar    1  UNL1        0.0029
     24 C         144.1138  139.4358  163.2182 C.ar    1  UNL1        0.0203
     25 CA        142.6985  139.1513  162.8108 C.ar    1  UNL1        0.0949
     26 N         141.9838  140.0858  161.8801 N.ar    1  UNL1       -0.2465
     27 C         141.9979  137.9325  163.3339 C.2     1  UNL1        0.0905
     28 O         141.2096  137.0620  162.4007 O.co2   1  UNL1       -0.5430
     29 OXT       142.0856  137.5842  164.7904 O.co2   1  UNL1       -0.5430
     30 C         140.1093  144.6866  157.9167 C.ar    1  UNL1        0.1318
     31 N         140.1336  146.1631  157.6533 N.ar    1  UNL1       -0.2298
     32 C         139.6322  146.3934  156.2585 C.ar    1  UNL1        0.0996
     33 C         139.2981  145.0593  155.6598 C.ar    1  UNL1        0.0927
     34 N         139.5929  144.0044  156.6847 N.ar    1  UNL1       -0.3386
     35 H         139.4693  143.0346  156.5690 H       1  UNL1        0.1672
     36 C         139.4900  147.7243  155.5812 C.ar    1  UNL1        0.0193
     37 C         138.7476  148.8363  156.2612 C.ar    1  UNL1        0.0039
     38 C         138.6053  150.1671  155.5840 C.ar    1  UNL1        0.0297
     39 C         139.2054  150.3859  154.2268 C.ar    1  UNL1        0.1401
     40 F         139.0632  151.7168  153.5495 F       1  UNL1       -0.2042
     41 C         139.9479  149.2739  153.5469 C.ar    1  UNL1        0.0297
     42 C         140.0901  147.9431  154.2241 C.ar    1  UNL1        0.0039
@<TRIPOS>UNITY_ATOM_ATTR
28 1
charge -1
@<TRIPOS>BOND
     1    15    16    1
     2    16    17   ar
     3    17    18   ar
     4     1    18    1
     5     1    21    1
     6    21    22   ar
     7    22    23   ar
     8    23    24   ar
     9    24    25   ar
    10    25    27    1
    11    27    28   ar
    12    27    29   ar
    13    25    26   ar
    14     1     2    1
    15     2     3    1
    16     3    30    1
    17    30    31   ar
    18    31    32   ar
    19    32    36    1
    20    36    37   ar
    21    37    38   ar
    22    38    39   ar
    23    39    40    1
    24    39    41   ar
    25    41    42   ar
    26    32    33   ar
    27    33    34   ar
    28     3     4    1
    29     4     5    1
    30     5     6    2
    31     6     7    1
    32     7     8    2
    33     8     9    1
    34     9    10    1
    35    10    11    2
    36    11    12    1
    37    12    13    2
    38    18    19   ar
    39    19    20   ar
    40    20    16   ar
    41     6     1    1
    42    13     8    1
    43    26    21   ar
    44    34    30   ar
    45    13     5    1
    46    42    36   ar
    47     2    14    1
    48    34    35    1
@<TRIPOS>MOLECULE
*****
 42 48 0 0 0
SMALL
GASTEIGER

@<TRIPOS>ATOM
      1 C         141.8304  141.1145  160.6673 C.3     1  UNL1        0.1354
      2 N         142.0874  140.1738  159.5275 N.3     1  UNL1       -0.2823
      3 C         141.6727  138.7362  159.6337 C.3     1  UNL1        0.1166
      4 C         141.0011  138.2393  160.8795 C.3     1  UNL1        0.0511
      5 C         140.7442  139.1801  162.0192 C.2     1  UNL1       -0.0038
      6 C         141.1588  140.6177  161.9131 C.2     1  UNL1        0.0768
      7 N         140.7771  141.3056  163.1902 N.2     1  UNL1       -0.2520
      8 C         140.1265  140.2932  164.0856 C.2     1  UNL1        0.0627
      9 C         139.5501  140.3978  165.4664 C.3     1  UNL1        0.0717
     10 C         138.9532  139.1887  166.1235 C.2     1  UNL1       -0.0198
     11 C         138.9328  137.8750  165.3998 C.2     1  UNL1       -0.0042
     12 C         139.5093  137.7704  164.0190 C.2     1  UNL1        0.0006
     13 C         140.1062  138.9795  163.3619 C.2     1  UNL1        0.0111
     14 H         143.0940  140.1785  159.3630 H       1  UNL1        0.1245
     15 C         142.5896  144.8553  157.0188 C.3     1  UNL1        0.1537
     16 N         142.8417  143.7705  158.0237 N.ar    1  UNL1       -0.2476
     17 C         141.7975  143.0517  158.8257 C.ar    1  UNL1        0.0944
     18 C         142.4927  142.0511  159.7007 C.ar    1  UNL1        0.0407
     19 C         143.9664  142.1515  159.4394 C.ar    1  UNL1        0.1193
     20 N         144.1820  143.2142  158.4029 N.ar    1  UNL1       -0.1679
     21 C         141.8035  142.3806  161.4714 C.ar    1  UNL1        0.0810
     22 C         142.9595  142.7281  162.3618 C.ar    1  UNL1        0.0167
     23 C         142.9326  143.9941  163.1659 C.ar    1  UNL1        0.0029
     24 C         141.7497  144.9125  163.0795 C.ar    1  UNL1        0.0203
     25 CA        140.5938  144.5649  162.1891 C.ar    1  UNL1        0.0949
     26 N         140.6207  143.2989  161.3850 N.ar    1  UNL1       -0.2465
     27 C         139.4109  145.4833  162.1027 C.2     1  UNL1        0.0905
     28 O         139.5967  146.9067  161.6679 O.co2   1  UNL1       -0.5430
     29 OXT       138.0422  144.9780  162.4511 O.co2   1  UNL1       -0.5430
     30 C         141.9296  137.7953  158.4939 C.ar    1  UNL1        0.1318
     31 N         142.6567  136.4861  158.5783 N.ar    1  UNL1       -0.2298
     32 C         142.6810  135.8802  157.2063 C.ar    1  UNL1        0.0996
     33 C         141.9689  136.8150  156.2741 C.ar    1  UNL1        0.0927
     34 N         141.5045  137.9986  157.0699 N.ar    1  UNL1       -0.3386
     35 H         141.0079  138.7730  156.7191 H       1  UNL1        0.1672
     36 C         143.3075  134.5695  156.8323 C.ar    1  UNL1        0.0193
     37 C         143.1385  134.0266  155.4442 C.ar    1  UNL1        0.0039
     38 C         143.7649  132.7160  155.0702 C.ar    1  UNL1        0.0297
     39 C         144.5602  131.9484  156.0841 C.ar    1  UNL1        0.1401
     40 F         145.1867  130.6377  155.7101 F       1  UNL1       -0.2042
     41 C         144.7292  132.4914  157.4721 C.ar    1  UNL1        0.0297
     42 C         144.1028  133.8020  157.8462 C.ar    1  UNL1        0.0039
@<TRIPOS>UNITY_ATOM_ATTR
28 1
charge -1
@<TRIPOS>BOND
     1    15    16    1
     2    16    17   ar
     3    17    18   ar
     4     1    18    1
     5     1    21    1
     6    21    22   ar
     7    22    23   ar
     8    23    24   ar
     9    24    25   ar
    10    25    27    1
    11    27    28   ar
    12    27    29   ar
    13    25    26   ar
    14     1     2    1
    15     2     3    1
    16     3    30    1
    17    30    31   ar
    18    31    32   ar
    19    32    36    1
    20    36    37   ar
    21    37    38   ar
    22    38    39   ar
    23    39    40    1
    24    39    41   ar
    25    41    42   ar
    26    32    33   ar
    27    33    34   ar
    28     3     4    1
    29     4     5    1
    30     5     6    2
    31     6     7    1
    32     7     8    2
    33     8     9    1
    34     9    10    1
    35    10    11    2
    36    11    12    1
    37    12    13    2
    38    18    19   ar
    39    19    20   ar
    40    20    16   ar
    41     6     1    1
    42    13     8    1
    43    26    21   ar
    44    34    30   ar
    45    13     5    1
    46    42    36   ar
    47     2    14    1
    48    34    35    1
@<TRIPOS>MOLECULE
*****
 42 48 0 0 0
SMALL
GASTEIGER

@<TRIPOS>ATOM
      1 C         141.3456  141.2768  159.6446 C.3     1  UNL1        0.1354
      2 N         140.7117  142.1385  158.5932 N.3     1  UNL1       -0.2823
      3 C         140.7282  143.6315  158.7370 C.3     1  UNL1        0.1166
      4 C         141.3786  144.2627  159.9323 C.3     1  UNL1        0.0511
      5 C         142.0125  143.4010  160.9837 C.2     1  UNL1       -0.0038
      6 C         141.9960  141.9080  160.8399 C.2     1  UNL1        0.0768
      7 N         142.6961  141.3200  162.0290 N.2     1  UNL1       -0.2520
      8 C         143.1453  142.4496  162.9078 C.2     1  UNL1        0.0627
      9 C         143.8845  142.4733  164.2128 C.3     1  UNL1        0.0717
     10 C         144.2011  143.7830  164.8717 C.2     1  UNL1       -0.0198
     11 C         143.7786  145.0691  164.2256 C.2     1  UNL1       -0.0042
     12 C         143.0395  145.0455  162.9206 C.2     1  UNL1        0.0006
     13 C         142.7228  143.7357  162.2617 C.2     1  UNL1        0.0111
     14 H         139.7324  141.8592  158.5346 H       1  UNL1        0.1245
     15 C         141.0156  137.9729  155.5390 C.3     1  UNL1        0.1537
     16 N         140.7046  138.7000  156.8136 N.ar    1  UNL1       -0.2476
     17 C         141.5416  139.7742  157.4426 C.ar    1  UNL1        0.0944
     18 C         140.8563  140.2186  158.7007 C.ar    1  UNL1        0.0407
     19 C         139.5958  139.4191  158.8493 C.ar    1  UNL1        0.1193
     20 N         139.5021  138.4806  157.6829 N.ar    1  UNL1       -0.1679
     21 C         141.8096  140.0475  160.3683 C.ar    1  UNL1        0.0810
     22 C         143.1707  139.4821  160.0894 C.ar    1  UNL1        0.0167
     23 C         143.6348  138.2528  160.8131 C.ar    1  UNL1        0.0029
     24 C         142.7378  137.5891  161.8154 C.ar    1  UNL1        0.0203
     25 CA        141.3767  138.1545  162.0943 C.ar    1  UNL1        0.0949
     26 N         140.9127  139.3838  161.3706 N.ar    1  UNL1       -0.2465
     27 C         140.4796  137.4908  163.0966 C.2     1  UNL1        0.0905
     28 O         141.0699  136.8030  164.2918 O.co2   1  UNL1       -0.5430
     29 OXT       138.9922  137.5148  162.9037 O.co2   1  UNL1       -0.5430
     30 C         140.0943  144.4934  157.6856 C.ar    1  UNL1        0.1318
     31 N         140.1809  145.9885  157.6012 N.ar    1  UNL1       -0.2298
     32 C         139.4026  146.4306  156.3975 C.ar    1  UNL1        0.0996
     33 C         138.8351  145.2087  155.7380 C.ar    1  UNL1        0.0927
     34 N         139.2625  144.0115  156.5341 N.ar    1  UNL1       -0.3386
     35 H         139.0368  143.0739  156.3357 H       1  UNL1        0.1672
     36 C         139.2234  147.8461  155.9345 C.ar    1  UNL1        0.0193
     37 C         138.5168  148.8379  156.8103 C.ar    1  UNL1        0.0039
     38 C         138.3376  150.2533  156.3475 C.ar    1  UNL1        0.0297
     39 C         138.8650  150.6770  155.0087 C.ar    1  UNL1        0.1401
     40 F         138.6857  152.0925  154.5457 F       1  UNL1       -0.2042
     41 C         139.5716  149.6853  154.1329 C.ar    1  UNL1        0.0297
     42 C         139.7508  148.2698  154.5957 C.ar    1  UNL1        0.0039
@<TRIPOS>UNITY_ATOM_ATTR
28 1
charge -1
@<TRIPOS>BOND
     1    15    16    1
     2    16    17   ar
     3    17    18   ar
     4     1    18    1
     5     1    21    1
     6    21    22   ar
     7    22    23   ar
     8    23    24   ar
     9    24    25   ar
    10    25    27    1
    11    27    28   ar
    12    27    29   ar
    13    25    26   ar
    14     1     2    1
    15     2     3    1
    16     3    30    1
    17    30    31   ar
    18    31    32   ar
    19    32    36    1
    20    36    37   ar
    21    37    38   ar
    22    38    39   ar
    23    39    40    1
    24    39    41   ar
    25    41    42   ar
    26    32    33   ar
    27    33    34   ar
    28     3     4    1
    29     4     5    1
    30     5     6    2
    31     6     7    1
    32     7     8    2
    33     8     9    1
    34     9    10    1
    35    10    11    2
    36    11    12    1
    37    12    13    2
    38    18    19   ar
    39    19    20   ar
    40    20    16   ar
    41     6     1    1
    42    13     8    1
    43    26    21   ar
    44    34    30   ar
    45    13     5    1
    46    42    36   ar
    47     2    14    1
    48    34    35    1
@<TRIPOS>MOLECULE
*****
 42 48 0 0 0
SMALL
GASTEIGER

@<TRIPOS>ATOM
      1 C         141.2771  141.5158  160.9903 C.3     1  UNL1        0.1354
      2 N         141.1137  140.8009  159.6818 N.3     1  UNL1       -0.2823
      3 C         140.3863  139.4901  159.6290 C.3     1  UNL1        0.1166
      4 C         139.8224  138.8942  160.8848 C.3     1  UNL1        0.0511
      5 C         139.9858  139.6092  162.1933 C.2     1  UNL1       -0.0038
      6 C         140.7132  140.9199  162.2460 C.2     1  UNL1        0.0768
      7 N         140.7180  141.3903  163.6703 N.2     1  UNL1       -0.2520
      8 C         139.9936  140.3703  164.4979 C.2     1  UNL1        0.0627
      9 C         139.6876  140.3017  165.9647 C.3     1  UNL1        0.0717
     10 C         138.9291  139.1322  166.5187 C.2     1  UNL1       -0.0198
     11 C         138.4765  138.0313  165.6058 C.2     1  UNL1       -0.0042
     12 C         138.7825  138.1000  164.1390 C.2     1  UNL1        0.0006
     13 C         139.5411  139.2695  163.5850 C.2     1  UNL1        0.0111
     14 H         142.0520  140.6317  159.3195 H       1  UNL1        0.1245
     15 C         142.2151  145.4401  157.5843 C.3     1  UNL1        0.1537
     16 N         142.4142  144.2795  158.5135 N.ar    1  UNL1       -0.2476
     17 C         141.3379  143.5685  159.2792 C.ar    1  UNL1        0.0944
     18 C         141.9829  142.4757  160.0791 C.ar    1  UNL1        0.0407
     19 C         143.4578  142.5114  159.8078 C.ar    1  UNL1        0.1193
     20 N         143.7243  143.6263  158.8402 N.ar    1  UNL1       -0.1679
     21 C         141.6857  142.5641  161.9824 C.ar    1  UNL1        0.0810
     22 C         140.8461  143.7941  162.1622 C.ar    1  UNL1        0.0167
     23 C         141.2546  144.8424  163.1543 C.ar    1  UNL1        0.0029
     24 C         142.5026  144.6607  163.9664 C.ar    1  UNL1        0.0203
     25 CA        143.3421  143.4307  163.7866 C.ar    1  UNL1        0.0949
     26 N         142.9335  142.3824  162.7945 N.ar    1  UNL1       -0.2465
     27 C         144.5901  143.2490  164.5987 C.2     1  UNL1        0.0905
     28 O         144.8440  144.1247  165.7897 O.co2   1  UNL1       -0.5430
     29 OXT       145.5841  142.1914  164.2197 O.co2   1  UNL1       -0.5430
     30 C         140.2229  138.7751  158.3205 C.ar    1  UNL1        0.1318
     31 N         141.0733  137.6449  157.8212 N.ar    1  UNL1       -0.2298
     32 C         140.5563  137.2361  156.4737 C.ar    1  UNL1        0.0996
     33 C         139.3865  138.1137  156.1403 C.ar    1  UNL1        0.0927
     34 N         139.1804  139.0649  157.2817 N.ar    1  UNL1       -0.3386
     35 H         138.4833  139.7577  157.3389 H       1  UNL1        0.1672
     36 C         141.1118  136.1418  155.6111 C.ar    1  UNL1        0.0193
     37 C         142.1490  135.2075  156.1601 C.ar    1  UNL1        0.0039
     38 C         142.7044  134.1132  155.2976 C.ar    1  UNL1        0.0297
     39 C         142.2227  133.9532  153.8861 C.ar    1  UNL1        0.1401
     40 F         142.7782  132.8589  153.0235 F       1  UNL1       -0.2042
     41 C         141.1855  134.8875  153.3371 C.ar    1  UNL1        0.0297
     42 C         140.6301  135.9818  154.1997 C.ar    1  UNL1        0.0039
@<TRIPOS>UNITY_ATOM_ATTR
28 1
charge -1
@<TRIPOS>BOND
     1    15    16    1
     2    16    17   ar
     3    17    18   ar
     4     1    18    1
     5     1    21    1
     6    21    22   ar
     7    22    23   ar
     8    23    24   ar
     9    24    25   ar
    10    25    27    1
    11    27    28   ar
    12    27    29   ar
    13    25    26   ar
    14     1     2    1
    15     2     3    1
    16     3    30    1
    17    30    31   ar
    18    31    32   ar
    19    32    36    1
    20    36    37   ar
    21    37    38   ar
    22    38    39   ar
    23    39    40    1
    24    39    41   ar
    25    41    42   ar
    26    32    33   ar
    27    33    34   ar
    28     3     4    1
    29     4     5    1
    30     5     6    2
    31     6     7    1
    32     7     8    2
    33     8     9    1
    34     9    10    1
    35    10    11    2
    36    11    12    1
    37    12    13    2
    38    18    19   ar
    39    19    20   ar
    40    20    16   ar
    41     6     1    1
    42    13     8    1
    43    26    21   ar
    44    34    30   ar
    45    13     5    1
    46    42    36   ar
    47     2    14    1
    48    34    35    1
@<TRIPOS>MOLECULE
*****
 42 48 0 0 0
SMALL
GASTEIGER

@<TRIPOS>ATOM
      1 C         141.5669  141.7398  160.1087 C.3     1  UNL1        0.1354
      2 N         141.2681  142.4861  158.8424 N.3     1  UNL1       -0.2823
      3 C         140.4458  143.7399  158.8870 C.3     1  UNL1        0.1166
      4 C         139.9224  144.2473  160.1979 C.3     1  UNL1        0.0511
      5 C         140.2212  143.5009  161.4643 C.2     1  UNL1       -0.0038
      6 C         141.0434  142.2472  161.4197 C.2     1  UNL1        0.0768
      7 N         141.1742  141.7286  162.8211 N.2     1  UNL1       -0.2520
      8 C         140.4327  142.6618  163.7318 C.2     1  UNL1        0.0627
      9 C         140.2178  142.6557  165.2163 C.3     1  UNL1        0.0717
     10 C         139.4139  143.7449  165.8622 C.2     1  UNL1       -0.0198
     11 C         138.8249  144.8403  165.0236 C.2     1  UNL1       -0.0042
     12 C         139.0398  144.8464  163.5391 C.2     1  UNL1        0.0006
     13 C         139.8437  143.7572  162.8932 C.2     1  UNL1        0.0111
     14 H         140.7808  141.8362  158.2255 H       1  UNL1        0.1245
     15 C         142.5242  138.2113  156.2990 C.3     1  UNL1        0.1537
     16 N         142.7202  139.2462  157.3670 N.ar    1  UNL1       -0.2476
     17 C         141.6353  139.9020  158.1690 C.ar    1  UNL1        0.0944
     18 C         142.2801  140.8680  159.1182 C.ar    1  UNL1        0.0407
     19 C         143.7635  140.8093  158.9029 C.ar    1  UNL1        0.1193
     20 N         144.0354  139.8069  157.8206 N.ar    1  UNL1       -0.1679
     21 C         142.1134  140.6907  161.0312 C.ar    1  UNL1        0.0810
     22 C         141.4340  139.3576  161.1369 C.ar    1  UNL1        0.0167
     23 C         141.9805  138.3084  162.0593 C.ar    1  UNL1        0.0029
     24 C         143.2062  138.5925  162.8758 C.ar    1  UNL1        0.0203
     25 CA        143.8856  139.9256  162.7701 C.ar    1  UNL1        0.0949
     26 N         143.3391  140.9747  161.8476 N.ar    1  UNL1       -0.2465
     27 C         145.1114  140.2097  163.5866 C.2     1  UNL1        0.0905
     28 O         145.9676  141.3986  163.2653 O.co2   1  UNL1       -0.5430
     29 OXT       145.4809  139.3047  164.7244 O.co2   1  UNL1       -0.5430
     30 C         140.1470  144.4863  157.6206 C.ar    1  UNL1        0.1318
     31 N         140.0589  145.9766  157.4755 N.ar    1  UNL1       -0.2298
     32 C         139.7413  146.2848  156.0423 C.ar    1  UNL1        0.0996
     33 C         139.6330  144.9849  155.3016 C.ar    1  UNL1        0.0927
     34 N         139.8838  143.8734  156.2771 N.ar    1  UNL1       -0.3386
     35 H         139.8768  142.9106  156.0716 H       1  UNL1        0.1672
     36 C         139.5631  147.6528  155.4531 C.ar    1  UNL1        0.0193
     37 C         140.1681  147.9799  154.1201 C.ar    1  UNL1        0.0039
     38 C         139.9900  149.3477  153.5310 C.ar    1  UNL1        0.0297
     39 C         139.2069  150.3885  154.2749 C.ar    1  UNL1        0.1401
     40 F         139.0288  151.7565  153.6857 F       1  UNL1       -0.2042
     41 C         138.6019  150.0615  155.6079 C.ar    1  UNL1        0.0297
     42 C         138.7800  148.6936  156.1970 C.ar    1  UNL1        0.0039
@<TRIPOS>UNITY_ATOM_ATTR
28 1
charge -1
@<TRIPOS>BOND
     1    15    16    1
     2    16    17   ar
     3    17    18   ar
     4     1    18    1
     5     1    21    1
     6    21    22   ar
     7    22    23   ar
     8    23    24   ar
     9    24    25   ar
    10    25    27    1
    11    27    28   ar
    12    27    29   ar
    13    25    26   ar
    14     1     2    1
    15     2     3    1
    16     3    30    1
    17    30    31   ar
    18    31    32   ar
    19    32    36    1
    20    36    37   ar
    21    37    38   ar
    22    38    39   ar
    23    39    40    1
    24    39    41   ar
    25    41    42   ar
    26    32    33   ar
    27    33    34   ar
    28     3     4    1
    29     4     5    1
    30     5     6    2
    31     6     7    1
    32     7     8    2
    33     8     9    1
    34     9    10    1
    35    10    11    2
    36    11    12    1
    37    12    13    2
    38    18    19   ar
    39    19    20   ar
    40    20    16   ar
    41     6     1    1
    42    13     8    1
    43    26    21   ar
    44    34    30   ar
    45    13     5    1
    46    42    36   ar
    47     2    14    1
    48    34    35    1
@<TRIPOS>MOLECULE
*****
 42 48 0 0 0
SMALL
GASTEIGER

@<TRIPOS>ATOM
      1 C         140.9336  140.9126  160.2131 C.3     1  UNL1        0.1354
      2 N         141.7648  140.8973  158.9645 N.3     1  UNL1       -0.2823
      3 C         143.2022  140.4731  159.0256 C.3     1  UNL1        0.1166
      4 C         143.8086  140.0643  160.3353 C.3     1  UNL1        0.0511
      5 C         142.9774  140.0796  161.5839 C.2     1  UNL1       -0.0038
      6 C         141.5400  140.5038  161.5228 C.2     1  UNL1        0.0768
      7 N         140.9723  140.4188  162.9086 N.2     1  UNL1       -0.2520
      8 C         142.0590  139.9421  163.8262 C.2     1  UNL1        0.0627
      9 C         142.0801  139.6718  165.3015 C.3     1  UNL1        0.0717
     10 C         143.3405  139.1920  165.9580 C.2     1  UNL1       -0.0198
     11 C         144.5798  138.9824  165.1393 C.2     1  UNL1       -0.0042
     12 C         144.5586  139.2526  163.6640 C.2     1  UNL1        0.0006
     13 C         143.2982  139.7325  163.0075 C.2     1  UNL1        0.0111
     14 H         141.7535  141.8466  158.5916 H       1  UNL1        0.1245
     15 C         136.9293  140.9745  156.7718 C.3     1  UNL1        0.1537
     16 N         138.0753  141.4120  157.6351 N.ar    1  UNL1       -0.2476
     17 C         138.8736  140.5337  158.5524 C.ar    1  UNL1        0.0944
     18 C         139.9159  141.3835  159.2169 C.ar    1  UNL1        0.0407
     19 C         139.7617  142.7870  158.7104 C.ar    1  UNL1        0.1193
     20 N         138.6241  142.8046  157.7328 N.ar    1  UNL1       -0.1679
     21 C         139.7490  141.0915  161.1158 C.ar    1  UNL1        0.0810
     22 C         138.8704  139.9200  161.4410 C.ar    1  UNL1        0.0167
     23 C         137.6858  140.0988  162.3436 C.ar    1  UNL1        0.0029
     24 C         137.3799  141.4490  162.9210 C.ar    1  UNL1        0.0203
     25 CA        138.2585  142.6205  162.5958 C.ar    1  UNL1        0.0949
     26 N         139.4431  142.4416  161.6931 N.ar    1  UNL1       -0.2465
     27 C         137.9526  143.9707  163.1732 C.2     1  UNL1        0.0905
     28 O         137.5757  144.1001  164.6192 O.co2   1  UNL1       -0.5430
     29 OXT       138.0237  145.1914  162.3044 O.co2   1  UNL1       -0.5430
     30 C         144.0334  140.4578  157.7770 C.ar    1  UNL1        0.1318
     31 N         144.9964  141.5239  157.3458 N.ar    1  UNL1       -0.2298
     32 C         145.6057  141.0987  156.0428 C.ar    1  UNL1        0.0996
     33 C         145.0193  139.7697  155.6687 C.ar    1  UNL1        0.0927
     34 N         144.0476  139.3736  156.7405 N.ar    1  UNL1       -0.3386
     35 H         143.5130  138.5471  156.7602 H       1  UNL1        0.1672
     36 C         146.6229  141.8675  155.2525 C.ar    1  UNL1        0.0193
     37 C         148.0731  141.4925  155.3308 C.ar    1  UNL1        0.0039
     38 C         149.0903  142.2612  154.5406 C.ar    1  UNL1        0.0297
     39 C         148.6572  143.4050  153.6722 C.ar    1  UNL1        0.1401
     40 F         149.6743  144.1738  152.8820 F       1  UNL1       -0.2042
     41 C         147.2069  143.7800  153.5940 C.ar    1  UNL1        0.0297
     42 C         146.1898  143.0113  154.3841 C.ar    1  UNL1        0.0039
@<TRIPOS>UNITY_ATOM_ATTR
28 1
charge -1
@<TRIPOS>BOND
     1    15    16    1
     2    16    17   ar
     3    17    18   ar
     4     1    18    1
     5     1    21    1
     6    21    22   ar
     7    22    23   ar
     8    23    24   ar
     9    24    25   ar
    10    25    27    1
    11    27    28   ar
    12    27    29   ar
    13    25    26   ar
    14     1     2    1
    15     2     3    1
    16     3    30    1
    17    30    31   ar
    18    31    32   ar
    19    32    36    1
    20    36    37   ar
    21    37    38   ar
    22    38    39   ar
    23    39    40    1
    24    39    41   ar
    25    41    42   ar
    26    32    33   ar
    27    33    34   ar
    28     3     4    1
    29     4     5    1
    30     5     6    2
    31     6     7    1
    32     7     8    2
    33     8     9    1
    34     9    10    1
    35    10    11    2
    36    11    12    1
    37    12    13    2
    38    18    19   ar
    39    19    20   ar
    40    20    16   ar
    41     6     1    1
    42    13     8    1
    43    26    21   ar
    44    34    30   ar
    45    13     5    1
    46    42    36   ar
    47     2    14    1
    48    34    35    1
@<TRIPOS>MOLECULE
*****
 42 48 0 0 0
SMALL
GASTEIGER

@<TRIPOS>ATOM
      1 C         140.5848  140.7031  159.9623 C.3     1  UNL1        0.1354
      2 N         141.0733  139.9332  158.7713 N.3     1  UNL1       -0.2823
      3 C         142.2159  138.9723  158.9166 C.3     1  UNL1        0.1166
      4 C         142.8700  138.7813  160.2529 C.3     1  UNL1        0.0511
      5 C         142.3815  139.5512  161.4439 C.2     1  UNL1       -0.0038
      6 C         141.2389  140.5122  161.2986 C.2     1  UNL1        0.0768
      7 N         140.9768  141.1270  162.6415 N.2     1  UNL1       -0.2520
      8 C         141.9573  140.5460  163.6167 C.2     1  UNL1        0.0627
      9 C         142.1718  140.7780  165.0830 C.3     1  UNL1        0.0717
     10 C         143.2545  140.0361  165.8092 C.2     1  UNL1       -0.0198
     11 C         144.1227  139.0623  165.0690 C.2     1  UNL1       -0.0042
     12 C         143.9082  138.8303  163.6027 C.2     1  UNL1        0.0006
     13 C         142.8255  139.5722  162.8765 C.2     1  UNL1        0.0111
     14 H         141.3534  140.6202  158.0713 H       1  UNL1        0.1245
     15 C         136.5400  141.1005  156.5914 C.3     1  UNL1        0.1537
     16 N         137.7889  141.4071  157.3637 N.ar    1  UNL1       -0.2476
     17 C         138.4216  140.5284  158.4018 C.ar    1  UNL1        0.0944
     18 C         139.6480  141.2244  158.9132 C.ar    1  UNL1        0.0407
     19 C         139.7733  142.5332  158.1911 C.ar    1  UNL1        0.1193
     20 N         138.6242  142.6461  157.2335 N.ar    1  UNL1       -0.1679
     21 C         139.7709  141.6541  160.7891 C.ar    1  UNL1        0.0810
     22 C         138.4968  141.1895  161.4299 C.ar    1  UNL1        0.0167
     23 C         137.6830  142.1404  162.2567 C.ar    1  UNL1        0.0029
     24 C         138.1433  143.5558  162.4425 C.ar    1  UNL1        0.0203
     25 CA        139.4174  144.0205  161.8016 C.ar    1  UNL1        0.0949
     26 N         140.2312  143.0695  160.9749 N.ar    1  UNL1       -0.2465
     27 C         139.8777  145.4359  161.9874 C.2     1  UNL1        0.0905
     28 O         139.1684  146.5539  161.2825 O.co2   1  UNL1       -0.5430
     29 OXT       141.0475  145.7333  162.8782 O.co2   1  UNL1       -0.5430
     30 C         142.7044  138.2023  157.7255 C.ar    1  UNL1        0.1318
     31 N         142.3651  136.7788  157.3963 N.ar    1  UNL1       -0.2298
     32 C         143.0690  136.4174  156.1219 C.ar    1  UNL1        0.0996
     33 C         143.8433  137.6176  155.6636 C.ar    1  UNL1        0.0927
     34 N         143.6179  138.7207  156.6547 N.ar    1  UNL1       -0.3386
     35 H         144.0022  139.6260  156.6102 H       1  UNL1        0.1672
     36 C         143.0091  135.0890  155.4278 C.ar    1  UNL1        0.0193
     37 C         143.6860  133.8952  156.0333 C.ar    1  UNL1        0.0039
     38 C         143.6261  132.5668  155.3392 C.ar    1  UNL1        0.0297
     39 C         142.8893  132.4322  154.0396 C.ar    1  UNL1        0.1401
     40 F         142.8293  131.1038  153.3455 F       1  UNL1       -0.2042
     41 C         142.2124  133.6260  153.4341 C.ar    1  UNL1        0.0297
     42 C         142.2723  134.9544  154.1282 C.ar    1  UNL1        0.0039
@<TRIPOS>UNITY_ATOM_ATTR
28 1
charge -1
@<TRIPOS>BOND
     1    15    16    1
     2    16    17   ar
     3    17    18   ar
     4     1    18    1
     5     1    21    1
     6    21    22   ar
     7    22    23   ar
     8    23    24   ar
     9    24    25   ar
    10    25    27    1
    11    27    28   ar
    12    27    29   ar
    13    25    26   ar
    14     1     2    1
    15     2     3    1
    16     3    30    1
    17    30    31   ar
    18    31    32   ar
    19    32    36    1
    20    36    37   ar
    21    37    38   ar
    22    38    39   ar
    23    39    40    1
    24    39    41   ar
    25    41    42   ar
    26    32    33   ar
    27    33    34   ar
    28     3     4    1
    29     4     5    1
    30     5     6    2
    31     6     7    1
    32     7     8    2
    33     8     9    1
    34     9    10    1
    35    10    11    2
    36    11    12    1
    37    12    13    2
    38    18    19   ar
    39    19    20   ar
    40    20    16   ar
    41     6     1    1
    42    13     8    1
    43    26    21   ar
    44    34    30   ar
    45    13     5    1
    46    42    36   ar
    47     2    14    1
    48    34    35    1
@<TRIPOS>MOLECULE
*****
 42 48 0 0 0
SMALL
GASTEIGER

@<TRIPOS>ATOM
      1 C         142.6149  139.8209  160.0486 C.3     1  UNL1        0.1354
      2 N         142.6528  140.4315  161.4182 N.3     1  UNL1       -0.2823
      3 C         143.6169  141.5407  161.7185 C.3     1  UNL1        0.1166
      4 C         144.5431  142.0393  160.6492 C.3     1  UNL1        0.0511
      5 C         144.5053  141.4288  159.2796 C.2     1  UNL1       -0.0038
      6 C         143.5412  140.3196  158.9793 C.2     1  UNL1        0.0768
      7 N         143.7311  139.9154  157.5473 N.2     1  UNL1       -0.2520
      8 C         144.8126  140.7748  156.9626 C.2     1  UNL1        0.0627
      9 C         145.4234  140.8265  155.5936 C.3     1  UNL1        0.0717
     10 C         146.5128  141.8135  155.2953 C.2     1  UNL1       -0.0198
     11 C         146.9912  142.7488  156.3658 C.2     1  UNL1       -0.0042
     12 C         146.3804  142.6971  157.7348 C.2     1  UNL1        0.0006
     13 C         145.2910  141.7101  158.0332 C.2     1  UNL1        0.0111
     14 H         142.8601  139.6762  162.0717 H       1  UNL1        0.1245
     15 C         137.9003  138.1181  161.7080 C.3     1  UNL1        0.1537
     16 N         139.3797  138.2300  161.4864 N.ar    1  UNL1       -0.2476
     17 C         140.0722  139.2836  160.6737 C.ar    1  UNL1        0.0944
     18 C         141.5467  139.0128  160.7237 C.ar    1  UNL1        0.0407
     19 C         141.7654  137.7918  161.5672 C.ar    1  UNL1        0.1193
     20 N         140.4261  137.3081  162.0386 N.ar    1  UNL1       -0.1679
     21 C         142.2061  138.9297  158.9134 C.ar    1  UNL1        0.0810
     22 C         141.0318  139.2983  158.0561 C.ar    1  UNL1        0.0167
     23 C         140.6229  138.4071  156.9209 C.ar    1  UNL1        0.0029
     24 C         141.3884  137.1475  156.6431 C.ar    1  UNL1        0.0203
     25 CA        142.5627  136.7788  157.5004 C.ar    1  UNL1        0.0949
     26 N         142.9716  137.6701  158.6356 N.ar    1  UNL1       -0.2465
     27 C         143.3283  135.5192  157.2226 C.2     1  UNL1        0.0905
     28 O         143.5182  134.5021  158.3086 O.co2   1  UNL1       -0.5430
     29 OXT       143.9038  135.2767  155.8588 O.co2   1  UNL1       -0.5430
     30 C         143.6548  142.1513  163.0881 C.ar    1  UNL1        0.1318
     31 N         142.8141  141.7399  164.2603 N.ar    1  UNL1       -0.2298
     32 C         143.1797  142.6148  165.4226 C.ar    1  UNL1        0.0996
     33 C         144.2463  143.5668  164.9687 C.ar    1  UNL1        0.0927
     34 N         144.5399  143.2804  163.5259 N.ar    1  UNL1       -0.3386
     35 H         145.1980  143.7508  162.9648 H       1  UNL1        0.1672
     36 C         142.5834  142.5491  166.7975 C.ar    1  UNL1        0.0193
     37 C         141.0938  142.5810  166.9712 C.ar    1  UNL1        0.0039
     38 C         140.4975  142.5154  168.3459 C.ar    1  UNL1        0.0297
     39 C         141.3907  142.4178  169.5470 C.ar    1  UNL1        0.1401
     40 F         140.7944  142.3521  170.9219 F       1  UNL1       -0.2042
     41 C         142.8803  142.3859  169.3733 C.ar    1  UNL1        0.0297
     42 C         143.4766  142.4515  167.9985 C.ar    1  UNL1        0.0039
@<TRIPOS>UNITY_ATOM_ATTR
28 1
charge -1
@<TRIPOS>BOND
     1    15    16    1
     2    16    17   ar
     3    17    18   ar
     4     1    18    1
     5     1    21    1
     6    21    22   ar
     7    22    23   ar
     8    23    24   ar
     9    24    25   ar
    10    25    27    1
    11    27    28   ar
    12    27    29   ar
    13    25    26   ar
    14     1     2    1
    15     2     3    1
    16     3    30    1
    17    30    31   ar
    18    31    32   ar
    19    32    36    1
    20    36    37   ar
    21    37    38   ar
    22    38    39   ar
    23    39    40    1
    24    39    41   ar
    25    41    42   ar
    26    32    33   ar
    27    33    34   ar
    28     3     4    1
    29     4     5    1
    30     5     6    2
    31     6     7    1
    32     7     8    2
    33     8     9    1
    34     9    10    1
    35    10    11    2
    36    11    12    1
    37    12    13    2
    38    18    19   ar
    39    19    20   ar
    40    20    16   ar
    41     6     1    1
    42    13     8    1
    43    26    21   ar
    44    34    30   ar
    45    13     5    1
    46    42    36   ar
    47     2    14    1
    48    34    35    1
