@<TRIPOS>MOLECULE
*****
 27 30 0 0 0
SMALL
GASTEIGER

@<TRIPOS>ATOM
      1 N         141.6224  142.3343  168.2804 N.3     1  UNL1       -0.2687
      2 C         141.3400  143.1046  169.5362 C.3     1  UNL1        0.0615
      3 C         142.5948  143.1280  170.3578 C.3     1  UNL1        0.0175
      4 C         143.6527  142.3721  169.6098 C.3     1  UNL1        0.0175
      5 C         143.0518  141.8815  168.3259 C.3     1  UNL1        0.0615
      6 C         142.1968  141.5252  167.1338 C.3     1  UNL1        0.0595
      7 C         140.7928  142.0448  167.2281 C.3     1  UNL1        0.1686
      8 C         140.3644  142.8345  168.4293 C.3     1  UNL1        0.0595
      9 C         140.6468  142.0641  167.1736 C.3     1  UNL1        0.1375
     10 C         141.5963  145.1122  162.9678 C.3     1  UNL1        0.0725
     11 C         140.9108  144.4619  164.1327 C.ar    1  UNL1        0.1229
     12 C         139.5071  144.7273  164.5902 C.ar    1  UNL1        0.0358
     13 C         139.2374  143.8615  165.7849 C.ar    1  UNL1        0.0371
     14 C         140.4744  143.0609  166.0659 C.ar    1  UNL1        0.1385
     15 O         141.5085  143.4319  165.0448 O.2     1  UNL1       -0.4606
     16 O         139.8172  141.7746  166.1211 O.3     1  UNL1       -0.4791
     17 C         139.3851  140.3682  165.8289 C.ar    1  UNL1        0.1385
     18 C         138.5956  139.5994  166.8465 C.ar    1  UNL1        0.0369
     19 C         138.1635  138.1931  166.5543 C.ar    1  UNL1        0.0033
     20 C         138.5210  137.5555  165.2444 C.ar    1  UNL1        0.0047
     21 C         139.3105  138.3243  164.2268 C.ar    1  UNL1        0.0561
     22 C         139.7426  139.7307  164.5191 C.ar    1  UNL1        0.0414
     23 C         139.6679  137.6868  162.9170 C.2     1  UNL1        0.2428
     24 N         138.6951  137.7214  161.7757 N.am    1  UNL1       -0.3253
     25 O         140.9983  137.0145  162.7483 O.2     1  UNL1       -0.2704
     26 H         137.8220  138.1626  161.8864 H       1  UNL1        0.1453
     27 H         138.9297  137.3029  160.9160 H       1  UNL1        0.1453
@<TRIPOS>BOND
     1    10    11    1
     2    11    12   ar
     3    12    13   ar
     4    13    14   ar
     5    14     9    1
     6     9     1    1
     7     1     2    1
     8     2     3    1
     9     3     4    1
    10     5     4    1
    11     5     6    1
    12     6     7    1
    13     7    16    1
    14    16    17    1
    15    17    18   ar
    16    18    19   ar
    17    19    20   ar
    18    20    21   ar
    19    21    23    1
    20    23    24   am
    21    23    25    2
    22    21    22   ar
    23     7     8    1
    24    14    15   ar
    25    15    11   ar
    26     5     1    1
    27    22    17   ar
    28     8     2    1
    29    24    26    1
    30    24    27    1
@<TRIPOS>MOLECULE
*****
 27 30 0 0 0
SMALL
GASTEIGER

@<TRIPOS>ATOM
      1 N         139.8668  139.8382  164.1042 N.3     1  UNL1       -0.2687
      2 C         138.7797  138.8808  164.4936 C.3     1  UNL1        0.0615
      3 C         138.8849  137.6747  163.6080 C.3     1  UNL1        0.0175
      4 C         140.0370  137.8867  162.6712 C.3     1  UNL1        0.0175
      5 C         140.6439  139.2238  162.9778 C.3     1  UNL1        0.0615
      6 C         141.0389  140.5849  163.4978 C.3     1  UNL1        0.0595
      7 C         140.1730  141.0698  164.6225 C.3     1  UNL1        0.1686
      8 C         139.0434  140.2178  165.1204 C.3     1  UNL1        0.0595
      9 C         140.1305  141.1751  164.7310 C.3     1  UNL1        0.1375
     10 C         139.5097  145.7265  162.1271 C.3     1  UNL1        0.0725
     11 C         139.2296  144.5040  162.9498 C.ar    1  UNL1        0.1229
     12 C         137.9057  144.1264  163.5453 C.ar    1  UNL1        0.0358
     13 C         138.0820  142.8335  164.2850 C.ar    1  UNL1        0.0371
     14 C         139.5149  142.4120  164.1467 C.ar    1  UNL1        0.1385
     15 O         140.2241  143.4444  163.3215 O.2     1  UNL1       -0.4606
     16 O         140.4367  142.4069  165.2494 O.3     1  UNL1       -0.4791
     17 C         141.1101  142.4883  166.5873 C.ar    1  UNL1        0.1385
     18 C         142.5504  142.0935  166.7273 C.ar    1  UNL1        0.0369
     19 C         143.2237  142.1749  168.0651 C.ar    1  UNL1        0.0033
     20 C         142.4567  142.6510  169.2630 C.ar    1  UNL1        0.0047
     21 C         141.0164  143.0457  169.1230 C.ar    1  UNL1        0.0561
     22 C         140.3431  142.9644  167.7851 C.ar    1  UNL1        0.0414
     23 C         140.2494  143.5219  170.3210 C.2     1  UNL1        0.2428
     24 N         139.8814  142.5563  171.4083 N.am    1  UNL1       -0.3253
     25 O         139.8504  144.9637  170.4316 O.2     1  UNL1       -0.2704
     26 H         140.1433  141.6100  171.3357 H       1  UNL1        0.1453
     27 H         139.3781  142.8688  172.1945 H       1  UNL1        0.1453
@<TRIPOS>BOND
     1    10    11    1
     2    11    12   ar
     3    12    13   ar
     4    13    14   ar
     5    14     9    1
     6     9     1    1
     7     1     2    1
     8     2     3    1
     9     3     4    1
    10     5     4    1
    11     5     6    1
    12     6     7    1
    13     7    16    1
    14    16    17    1
    15    17    18   ar
    16    18    19   ar
    17    19    20   ar
    18    20    21   ar
    19    21    23    1
    20    23    24   am
    21    23    25    2
    22    21    22   ar
    23     7     8    1
    24    14    15   ar
    25    15    11   ar
    26     5     1    1
    27    22    17   ar
    28     8     2    1
    29    24    26    1
    30    24    27    1
@<TRIPOS>MOLECULE
*****
 27 30 0 0 0
SMALL
GASTEIGER

@<TRIPOS>ATOM
      1 N         143.4429  141.7457  164.4714 N.3     1  UNL1       -0.2687
      2 C         143.5708  140.5870  163.5274 C.3     1  UNL1        0.0615
      3 C         144.9890  140.5394  163.0413 C.3     1  UNL1        0.0175
      4 C         145.7377  141.6687  163.6848 C.3     1  UNL1        0.0175
      5 C         144.7821  142.4142  164.5687 C.3     1  UNL1        0.0615
      6 C         143.6195  142.9599  165.3622 C.3     1  UNL1        0.0595
      7 C         142.3472  142.1904  165.1650 C.3     1  UNL1        0.1686
      8 C         142.3228  141.0039  164.2476 C.3     1  UNL1        0.0595
      9 C         142.1949  142.1626  165.1915 C.3     1  UNL1        0.1375
     10 C         137.8409  143.4837  162.5125 C.3     1  UNL1        0.0725
     11 C         139.1470  143.5716  163.2446 C.ar    1  UNL1        0.1229
     12 C         139.9289  144.8249  163.5054 C.ar    1  UNL1        0.0358
     13 C         141.1658  144.4496  164.2665 C.ar    1  UNL1        0.0371
     14 C         141.1484  142.9644  164.4760 C.ar    1  UNL1        0.1385
     15 O         139.9007  142.4218  163.8445 O.2     1  UNL1       -0.4606
     16 O         141.0991  142.6074  165.8852 O.3     1  UNL1       -0.4791
     17 C         140.6918  141.9063  167.1472 C.ar    1  UNL1        0.1385
     18 C         139.7902  140.7092  167.0827 C.ar    1  UNL1        0.0369
     19 C         139.3829  140.0082  168.3446 C.ar    1  UNL1        0.0033
     20 C         139.8771  140.5043  169.6712 C.ar    1  UNL1        0.0047
     21 C         140.7786  141.7014  169.7357 C.ar    1  UNL1        0.0561
     22 C         141.1860  142.4024  168.4737 C.ar    1  UNL1        0.0414
     23 C         141.2728  142.1974  171.0622 C.2     1  UNL1        0.2428
     24 N         142.6671  142.7358  171.1896 N.am    1  UNL1       -0.3253
     25 O         140.3727  142.1550  172.2615 O.2     1  UNL1       -0.2704
     26 H         143.2578  142.7636  170.4025 H       1  UNL1        0.1453
     27 H         142.9914  143.0614  172.0602 H       1  UNL1        0.1453
@<TRIPOS>BOND
     1    10    11    1
     2    11    12   ar
     3    12    13   ar
     4    13    14   ar
     5    14     9    1
     6     9     1    1
     7     1     2    1
     8     2     3    1
     9     3     4    1
    10     5     4    1
    11     5     6    1
    12     6     7    1
    13     7    16    1
    14    16    17    1
    15    17    18   ar
    16    18    19   ar
    17    19    20   ar
    18    20    21   ar
    19    21    23    1
    20    23    24   am
    21    23    25    2
    22    21    22   ar
    23     7     8    1
    24    14    15   ar
    25    15    11   ar
    26     5     1    1
    27    22    17   ar
    28     8     2    1
    29    24    26    1
    30    24    27    1
@<TRIPOS>MOLECULE
*****
 27 30 0 0 0
SMALL
GASTEIGER

@<TRIPOS>ATOM
      1 N         139.0618  142.4008  164.2609 N.3     1  UNL1       -0.2687
      2 C         137.6759  142.7966  163.8457 C.3     1  UNL1        0.0615
      3 C         137.7266  144.2117  163.3507 C.3     1  UNL1        0.0175
      4 C         139.1439  144.6904  163.4601 C.3     1  UNL1        0.0175
      5 C         139.9691  143.5712  164.0226 C.3     1  UNL1        0.0615
      6 C         140.5379  142.2936  164.5911 C.3     1  UNL1        0.0595
      7 C         139.5140  141.2127  164.7743 C.3     1  UNL1        0.1686
      8 C         138.0830  141.4643  164.4016 C.3     1  UNL1        0.0595
      9 C         139.4690  141.0685  164.8169 C.3     1  UNL1        0.1375
     10 C         141.6843  138.0118  161.1252 C.3     1  UNL1        0.0725
     11 C         140.7600  138.5158  162.1935 C.ar    1  UNL1        0.1229
     12 C         139.5624  137.7934  162.7359 C.ar    1  UNL1        0.0358
     13 C         138.9331  138.6617  163.7846 C.ar    1  UNL1        0.0371
     14 C         139.7416  139.9207  163.8904 C.ar    1  UNL1        0.1385
     15 O         140.8707  139.8305  162.9070 O.2     1  UNL1       -0.4606
     16 O         139.9212  139.8804  165.3303 O.3     1  UNL1       -0.4791
     17 C         140.6165  139.8022  166.6572 C.ar    1  UNL1        0.1385
     18 C         142.0767  139.4647  166.7200 C.ar    1  UNL1        0.0369
     19 C         142.7720  139.3865  168.0467 C.ar    1  UNL1        0.0033
     20 C         142.0072  139.6458  169.3107 C.ar    1  UNL1        0.0047
     21 C         140.5470  139.9833  169.2479 C.ar    1  UNL1        0.0561
     22 C         139.8517  140.0615  167.9211 C.ar    1  UNL1        0.0414
     23 C         139.7821  140.2426  170.5119 C.2     1  UNL1        0.2428
     24 N         138.3295  139.8786  170.5977 N.am    1  UNL1       -0.3253
     25 O         140.4699  140.8660  171.6903 O.2     1  UNL1       -0.2704
     26 H         137.8781  139.4695  169.8243 H       1  UNL1        0.1453
     27 H         137.8275  140.0488  171.4273 H       1  UNL1        0.1453
@<TRIPOS>BOND
     1    10    11    1
     2    11    12   ar
     3    12    13   ar
     4    13    14   ar
     5    14     9    1
     6     9     1    1
     7     1     2    1
     8     2     3    1
     9     3     4    1
    10     5     4    1
    11     5     6    1
    12     6     7    1
    13     7    16    1
    14    16    17    1
    15    17    18   ar
    16    18    19   ar
    17    19    20   ar
    18    20    21   ar
    19    21    23    1
    20    23    24   am
    21    23    25    2
    22    21    22   ar
    23     7     8    1
    24    14    15   ar
    25    15    11   ar
    26     5     1    1
    27    22    17   ar
    28     8     2    1
    29    24    26    1
    30    24    27    1
@<TRIPOS>MOLECULE
*****
 27 30 0 0 0
SMALL
GASTEIGER

@<TRIPOS>ATOM
      1 N         142.3042  143.2786  164.9274 N.3     1  UNL1       -0.2687
      2 C         143.6863  143.6459  164.4747 C.3     1  UNL1        0.0615
      3 C         143.5778  144.8452  163.5804 C.3     1  UNL1        0.0175
      4 C         142.1286  145.2192  163.4803 C.3     1  UNL1        0.0175
      5 C         141.3415  144.2510  164.3128 C.3     1  UNL1        0.0615
      6 C         140.8195  143.1541  165.2092 C.3     1  UNL1        0.0595
      7 C         141.8961  142.2605  165.7498 C.3     1  UNL1        0.1686
      8 C         143.3295  142.5063  165.3826 C.3     1  UNL1        0.0595
      9 C         141.9474  142.1391  165.8352 C.3     1  UNL1        0.1375
     10 C         140.0015  143.4299  170.5710 C.3     1  UNL1        0.0725
     11 C         140.9288  142.9609  169.4893 C.ar    1  UNL1        0.1229
     12 C         142.3356  142.4775  169.6823 C.ar    1  UNL1        0.0358
     13 C         142.8884  142.1108  168.3370 C.ar    1  UNL1        0.0371
     14 C         141.8232  142.3676  167.3125 C.ar    1  UNL1        0.1385
     15 O         140.6122  142.8930  168.0247 O.2     1  UNL1       -0.4606
     16 O         141.5393  141.1209  166.6577 O.3     1  UNL1       -0.4791
     17 C         140.5140  140.1133  166.2291 C.ar    1  UNL1        0.1385
     18 C         139.3262  139.8342  167.1016 C.ar    1  UNL1        0.0369
     19 C         138.3010  138.8267  166.6731 C.ar    1  UNL1        0.0033
     20 C         138.4636  138.0982  165.3720 C.ar    1  UNL1        0.0047
     21 C         139.6513  138.3772  164.4995 C.ar    1  UNL1        0.0561
     22 C         140.6766  139.3848  164.9281 C.ar    1  UNL1        0.0414
     23 C         139.8139  137.6486  163.1985 C.2     1  UNL1        0.2428
     24 N         138.6891  137.6255  162.2062 N.am    1  UNL1       -0.3253
     25 O         141.1012  136.9432  162.8896 O.2     1  UNL1       -0.2704
     26 H         137.8443  138.0884  162.4089 H       1  UNL1        0.1453
     27 H         138.7958  137.1473  161.3523 H       1  UNL1        0.1453
@<TRIPOS>BOND
     1    10    11    1
     2    11    12   ar
     3    12    13   ar
     4    13    14   ar
     5    14     9    1
     6     9     1    1
     7     1     2    1
     8     2     3    1
     9     3     4    1
    10     5     4    1
    11     5     6    1
    12     6     7    1
    13     7    16    1
    14    16    17    1
    15    17    18   ar
    16    18    19   ar
    17    19    20   ar
    18    20    21   ar
    19    21    23    1
    20    23    24   am
    21    23    25    2
    22    21    22   ar
    23     7     8    1
    24    14    15   ar
    25    15    11   ar
    26     5     1    1
    27    22    17   ar
    28     8     2    1
    29    24    26    1
    30    24    27    1
@<TRIPOS>MOLECULE
*****
 27 30 0 0 0
SMALL
GASTEIGER

@<TRIPOS>ATOM
      1 N         142.8810  140.4010  164.8483 N.3     1  UNL1       -0.2687
      2 C         143.6482  141.4497  164.0989 C.3     1  UNL1        0.0615
      3 C         144.9982  140.8870  163.7657 C.3     1  UNL1        0.0175
      4 C         145.0652  139.4905  164.3091 C.3     1  UNL1        0.0175
      5 C         143.7567  139.1901  164.9781 C.3     1  UNL1        0.0615
      6 C         142.3668  139.1688  165.5670 C.3     1  UNL1        0.0595
      7 C         141.6099  140.4472  165.3599 C.3     1  UNL1        0.1686
      8 C         142.2506  141.5876  164.6259 C.3     1  UNL1        0.0595
      9 C         141.4834  140.5389  165.3752 C.3     1  UNL1        0.1375
     10 C         138.1862  138.1969  161.9805 C.3     1  UNL1        0.0725
     11 C         138.7974  139.1989  162.9145 C.ar    1  UNL1        0.1229
     12 C         138.2263  140.5411  163.2642 C.ar    1  UNL1        0.0358
     13 C         139.1629  141.2064  164.2285 C.ar    1  UNL1        0.0371
     14 C         140.3129  140.2754  164.4748 C.ar    1  UNL1        0.1385
     15 O         140.0870  139.0347  163.6627 O.2     1  UNL1       -0.4606
     16 O         140.2123  140.5851  165.8869 O.3     1  UNL1       -0.4791
     17 C         139.9843  140.8813  167.3396 C.ar    1  UNL1        0.1385
     18 C         139.1740  139.9387  168.1791 C.ar    1  UNL1        0.0369
     19 C         138.9461  140.2349  169.6317 C.ar    1  UNL1        0.0033
     20 C         139.5283  141.4738  170.2449 C.ar    1  UNL1        0.0047
     21 C         140.3386  142.4165  169.4053 C.ar    1  UNL1        0.0561
     22 C         140.5666  142.1202  167.9527 C.ar    1  UNL1        0.0414
     23 C         140.9209  143.6554  170.0185 C.2     1  UNL1        0.2428
     24 N         140.0430  144.8403  170.2930 N.am    1  UNL1       -0.3253
     25 O         142.3812  143.7095  170.3573 O.2     1  UNL1       -0.2704
     26 H         139.0845  144.8048  170.0707 H       1  UNL1        0.1453
     27 H         140.4251  145.6534  170.6954 H       1  UNL1        0.1453
@<TRIPOS>BOND
     1    10    11    1
     2    11    12   ar
     3    12    13   ar
     4    13    14   ar
     5    14     9    1
     6     9     1    1
     7     1     2    1
     8     2     3    1
     9     3     4    1
    10     5     4    1
    11     5     6    1
    12     6     7    1
    13     7    16    1
    14    16    17    1
    15    17    18   ar
    16    18    19   ar
    17    19    20   ar
    18    20    21   ar
    19    21    23    1
    20    23    24   am
    21    23    25    2
    22    21    22   ar
    23     7     8    1
    24    14    15   ar
    25    15    11   ar
    26     5     1    1
    27    22    17   ar
    28     8     2    1
    29    24    26    1
    30    24    27    1
@<TRIPOS>MOLECULE
*****
 27 30 0 0 0
SMALL
GASTEIGER

@<TRIPOS>ATOM
      1 N         142.4112  143.0490  164.5895 N.3     1  UNL1       -0.2687
      2 C         141.5371  144.0112  163.8412 C.3     1  UNL1        0.0615
      3 C         142.3416  145.2455  163.5592 C.3     1  UNL1        0.0175
      4 C         143.7129  145.0460  164.1333 C.3     1  UNL1        0.0175
      5 C         143.7560  143.6886  164.7701 C.3     1  UNL1        0.0615
      6 C         143.5120  142.3034  165.3185 C.3     1  UNL1        0.0595
      7 C         142.1242  141.7948  165.0629 C.3     1  UNL1        0.1686
      8 C         141.1367  142.6488  164.3242 C.3     1  UNL1        0.0595
      9 C         142.0108  141.6865  165.0726 C.3     1  UNL1        0.1375
     10 C         143.8341  138.0035  161.7573 C.3     1  UNL1        0.0725
     11 C         142.9158  138.8186  162.6187 C.ar    1  UNL1        0.1229
     12 C         141.4452  138.5881  162.8043 C.ar    1  UNL1        0.0358
     13 C         140.9273  139.6344  163.7461 C.ar    1  UNL1        0.0371
     14 C         142.0777  140.5115  164.1426 C.ar    1  UNL1        0.1385
     15 O         143.3066  140.0073  163.4458 O.2     1  UNL1       -0.4606
     16 O         141.7238  140.4322  165.5459 O.3     1  UNL1       -0.4791
     17 C         141.3646  140.2231  166.9872 C.ar    1  UNL1        0.1385
     18 C         139.9956  140.5882  167.4795 C.ar    1  UNL1        0.0369
     19 C         139.6364  140.3791  168.9207 C.ar    1  UNL1        0.0033
     20 C         140.6462  139.8048  169.8696 C.ar    1  UNL1        0.0047
     21 C         142.0152  139.4396  169.3773 C.ar    1  UNL1        0.0561
     22 C         142.3744  139.6488  167.9360 C.ar    1  UNL1        0.0414
     23 C         143.0250  138.8653  170.3262 C.2     1  UNL1        0.2428
     24 N         143.7198  139.7571  171.3122 N.am    1  UNL1       -0.3253
     25 O         143.3402  137.3992  170.2892 O.2     1  UNL1       -0.2704
     26 H         143.5130  140.7193  171.3365 H       1  UNL1        0.1453
     27 H         144.3825  139.3802  171.9350 H       1  UNL1        0.1453
@<TRIPOS>BOND
     1    10    11    1
     2    11    12   ar
     3    12    13   ar
     4    13    14   ar
     5    14     9    1
     6     9     1    1
     7     1     2    1
     8     2     3    1
     9     3     4    1
    10     5     4    1
    11     5     6    1
    12     6     7    1
    13     7    16    1
    14    16    17    1
    15    17    18   ar
    16    18    19   ar
    17    19    20   ar
    18    20    21   ar
    19    21    23    1
    20    23    24   am
    21    23    25    2
    22    21    22   ar
    23     7     8    1
    24    14    15   ar
    25    15    11   ar
    26     5     1    1
    27    22    17   ar
    28     8     2    1
    29    24    26    1
    30    24    27    1
@<TRIPOS>MOLECULE
*****
 27 30 0 0 0
SMALL
GASTEIGER

@<TRIPOS>ATOM
      1 N         140.7258  143.7468  163.8093 N.3     1  UNL1       -0.2687
      2 C         141.3149  145.0688  163.4152 C.3     1  UNL1        0.0615
      3 C         140.4135  145.6909  162.3903 C.3     1  UNL1        0.0175
      4 C         139.2673  144.7534  162.1510 C.3     1  UNL1        0.0175
      5 C         139.4603  143.5519  163.0279 C.3     1  UNL1        0.0615
      6 C         139.9050  142.4863  164.0005 C.3     1  UNL1        0.0595
      7 C         141.1854  142.8188  164.7077 C.3     1  UNL1        0.1686
      8 C         141.8903  144.1101  164.4150 C.3     1  UNL1        0.0595
      9 C         141.3012  142.7880  164.8091 C.3     1  UNL1        0.1375
     10 C         143.9043  138.8248  162.4859 C.3     1  UNL1        0.0725
     11 C         143.5893  140.0220  163.3328 C.ar    1  UNL1        0.1229
     12 C         144.5559  140.7594  164.2115 C.ar    1  UNL1        0.0358
     13 C         143.8164  141.8853  164.8714 C.ar    1  UNL1        0.0371
     14 C         142.3928  141.8438  164.4007 C.ar    1  UNL1        0.1385
     15 O         142.2525  140.6923  163.4497 O.2     1  UNL1       -0.4606
     16 O         141.7608  141.8600  165.7076 O.3     1  UNL1       -0.4791
     17 C         140.9744  141.4895  166.9300 C.ar    1  UNL1        0.1385
     18 C         140.1809  140.2167  166.9541 C.ar    1  UNL1        0.0369
     19 C         139.3946  139.8462  168.1764 C.ar    1  UNL1        0.0033
     20 C         139.4016  140.7485  169.3747 C.ar    1  UNL1        0.0047
     21 C         140.1950  142.0212  169.3506 C.ar    1  UNL1        0.0561
     22 C         140.9814  142.3917  168.1282 C.ar    1  UNL1        0.0414
     23 C         140.2020  142.9234  170.5489 C.2     1  UNL1        0.2428
     24 N         140.0457  144.4049  170.3733 N.am    1  UNL1       -0.3253
     25 O         140.3653  142.3441  171.9230 O.2     1  UNL1       -0.2704
     26 H         139.9385  144.7851  169.4715 H       1  UNL1        0.1453
     27 H         140.0503  144.9970  171.1598 H       1  UNL1        0.1453
@<TRIPOS>BOND
     1    10    11    1
     2    11    12   ar
     3    12    13   ar
     4    13    14   ar
     5    14     9    1
     6     9     1    1
     7     1     2    1
     8     2     3    1
     9     3     4    1
    10     5     4    1
    11     5     6    1
    12     6     7    1
    13     7    16    1
    14    16    17    1
    15    17    18   ar
    16    18    19   ar
    17    19    20   ar
    18    20    21   ar
    19    21    23    1
    20    23    24   am
    21    23    25    2
    22    21    22   ar
    23     7     8    1
    24    14    15   ar
    25    15    11   ar
    26     5     1    1
    27    22    17   ar
    28     8     2    1
    29    24    26    1
    30    24    27    1
@<TRIPOS>MOLECULE
*****
 27 30 0 0 0
SMALL
GASTEIGER

@<TRIPOS>ATOM
      1 N         142.6398  143.3599  164.7469 N.3     1  UNL1       -0.2687
      2 C         143.9351  144.0828  164.5243 C.3     1  UNL1        0.0615
      3 C         143.6398  145.3379  163.7579 C.3     1  UNL1        0.0175
      4 C         142.1619  145.3907  163.5068 C.3     1  UNL1        0.0175
      5 C         141.5438  144.1682  164.1180 C.3     1  UNL1        0.0615
      6 C         141.2057  142.8717  164.8136 C.3     1  UNL1        0.0595
      7 C         142.4008  142.1747  165.3932 C.3     1  UNL1        0.1686
      8 C         143.7655  142.7802  165.2486 C.3     1  UNL1        0.0595
      9 C         142.4702  142.0573  165.4711 C.3     1  UNL1        0.1375
     10 C         141.5636  137.8035  162.4772 C.3     1  UNL1        0.0725
     11 C         142.2416  138.8066  163.3625 C.ar    1  UNL1        0.1229
     12 C         143.6544  138.7302  163.8608 C.ar    1  UNL1        0.0358
     13 C         143.9120  139.9386  164.7113 C.ar    1  UNL1        0.0371
     14 C         142.6584  140.7619  164.7387 C.ar    1  UNL1        0.1385
     15 O         141.6261  140.0623  163.9051 O.2     1  UNL1       -0.4606
     16 O         142.2311  140.8721  166.1175 O.3     1  UNL1       -0.4791
     17 C         141.3571  140.7988  167.3343 C.ar    1  UNL1        0.1385
     18 C         140.0602  140.0469  167.2821 C.ar    1  UNL1        0.0369
     19 C         139.1862  139.9737  168.4988 C.ar    1  UNL1        0.0033
     20 C         139.6090  140.6524  169.7679 C.ar    1  UNL1        0.0047
     21 C         140.9059  141.4043  169.8202 C.ar    1  UNL1        0.0561
     22 C         141.7799  141.4776  168.6033 C.ar    1  UNL1        0.0414
     23 C         141.3286  142.0830  171.0893 C.2     1  UNL1        0.2428
     24 N         142.6743  142.7400  171.1761 N.am    1  UNL1       -0.3253
     25 O         140.4057  142.1048  172.2716 O.2     1  UNL1       -0.2704
     26 H         143.2801  142.7257  170.4002 H       1  UNL1        0.1453
     27 H         142.9518  143.1855  172.0091 H       1  UNL1        0.1453
@<TRIPOS>BOND
     1    10    11    1
     2    11    12   ar
     3    12    13   ar
     4    13    14   ar
     5    14     9    1
     6     9     1    1
     7     1     2    1
     8     2     3    1
     9     3     4    1
    10     5     4    1
    11     5     6    1
    12     6     7    1
    13     7    16    1
    14    16    17    1
    15    17    18   ar
    16    18    19   ar
    17    19    20   ar
    18    20    21   ar
    19    21    23    1
    20    23    24   am
    21    23    25    2
    22    21    22   ar
    23     7     8    1
    24    14    15   ar
    25    15    11   ar
    26     5     1    1
    27    22    17   ar
    28     8     2    1
    29    24    26    1
    30    24    27    1
