@<TRIPOS>MOLECULE
*****
 34 37 0 0 0
SMALL
GASTEIGER

@<TRIPOS>ATOM
      1 C         139.1093  143.1881  158.6585 C.3     1  UNL1        0.0276
      2 C         139.5812  142.8696  160.0462 C.3     1  UNL1        0.1109
      3 C         138.5206  141.8212  159.8846 C.3     1  UNL1        0.0276
      4 C         139.6847  142.1869  161.3779 C.ar    1  UNL1        0.1375
      5 N         138.9402  141.0284  161.9725 N.ar    1  UNL1       -0.2280
      6 C         139.4802  140.7888  163.3512 C.ar    1  UNL1        0.1125
      7 C         140.5585  141.7992  163.6087 C.ar    1  UNL1        0.1318
      8 N         140.6850  142.6633  162.3891 N.ar    1  UNL1       -0.3006
      9 C         141.5816  143.8223  162.0688 C.3     1  UNL1        0.1299
     10 C         141.4781  144.5049  160.7372 C.3     1  UNL1        0.1182
     11 N         140.4779  144.0286  159.7259 N.am    1  UNL1       -0.2732
     12 C         140.3743  144.7113  158.3942 C.2     1  UNL1        0.2418
     13 O         139.3741  144.2349  157.3830 O.2     1  UNL1       -0.2734
     14 C         139.0223  139.7255  164.3050 C.ar    1  UNL1        0.0205
     15 C         139.3226  138.2836  164.0212 C.ar    1  UNL1        0.0039
     16 C         138.8647  137.2203  164.9750 C.ar    1  UNL1        0.0297
     17 C         138.1064  137.5989  166.2125 C.ar    1  UNL1        0.1401
     18 F         137.6485  136.5356  167.1663 F       1  UNL1       -0.2042
     19 C         137.8060  139.0408  166.4963 C.ar    1  UNL1        0.0297
     20 C         138.2639  140.1041  165.5425 C.ar    1  UNL1        0.0039
     21 C         141.2710  145.8703  158.0739 C.3     1  UNL1        0.1517
     22 N         142.6223  145.6284  157.4693 N.3     1  UNL1       -0.3135
     23 H         143.2122  145.1368  158.1407 H       1  UNL1        0.1193
     24 H         143.0522  146.5217  157.2292 H       1  UNL1        0.1193
     25 N         141.3683  141.9237  164.8652 N.pl3   1  UNL1       -0.2980
     26 H         141.4041  142.7828  165.3446 H       1  UNL1        0.1536
     27 C         142.1235  140.7393  165.3912 C.ar    1  UNL1        0.0518
     28 C         142.9749  139.9213  164.4659 C.ar    1  UNL1        0.0171
     29 C         143.7302  138.7369  164.9919 C.ar    1  UNL1        0.0332
     30 C         143.6340  138.3704  166.4433 C.ar    1  UNL1        0.1675
     31 F         144.3893  137.1859  166.9692 F       1  UNL1       -0.2018
     32 C         142.7827  139.1883  167.3685 C.ar    1  UNL1        0.1686
     33 F         142.6866  138.8216  168.8199 F       1  UNL1       -0.2018
     34 C         142.0274  140.3727  166.8426 C.ar    1  UNL1        0.0466
@<TRIPOS>BOND
     1     1     2    1
     2     2     3    1
     3     2     4    1
     4     4     5   ar
     5     5     6   ar
     6     6    14    1
     7    14    15   ar
     8    15    16   ar
     9    16    17   ar
    10    17    18    1
    11    17    19   ar
    12    19    20   ar
    13     6     7   ar
    14     7    25    1
    15    25    27    1
    16    27    28   ar
    17    28    29   ar
    18    29    30   ar
    19    30    31    1
    20    30    32   ar
    21    32    33    1
    22    32    34   ar
    23     7     8   ar
    24     8     9    1
    25     9    10    1
    26    10    11    1
    27    11    12   am
    28    12    13    2
    29    12    21    1
    30    21    22    1
    31    11     2    1
    32     8     4   ar
    33    20    14   ar
    34    34    27   ar
    35    25    26    1
    36    22    23    1
    37    22    24    1
@<TRIPOS>MOLECULE
*****
 34 37 0 0 0
SMALL
GASTEIGER

@<TRIPOS>ATOM
      1 C         145.0535  142.5059  160.5337 C.3     1  UNL1        0.0276
      2 C         143.9689  142.3398  161.5565 C.3     1  UNL1        0.1109
      3 C         145.1732  142.0620  162.4065 C.3     1  UNL1        0.0276
      4 C         143.3025  142.0772  162.8744 C.ar    1  UNL1        0.1375
      5 N         143.8526  141.7262  164.2250 N.ar    1  UNL1       -0.2280
      6 C         142.6987  141.5822  165.1724 C.ar    1  UNL1        0.1125
      7 C         141.4354  141.8442  164.4074 C.ar    1  UNL1        0.1318
      8 N         141.8085  142.1501  162.9871 N.ar    1  UNL1       -0.3006
      9 C         140.9809  142.4856  161.7819 C.3     1  UNL1        0.1299
     10 C         141.6473  142.7482  160.4640 C.3     1  UNL1        0.1182
     11 N         143.1413  142.6753  160.3513 N.am    1  UNL1       -0.2732
     12 C         143.8077  142.9379  159.0333 C.2     1  UNL1        0.2418
     13 O         145.3017  142.8650  158.9206 O.2     1  UNL1       -0.2734
     14 C         142.7918  141.2369  166.6292 C.ar    1  UNL1        0.0205
     15 C         143.0758  142.3102  167.6377 C.ar    1  UNL1        0.0039
     16 C         143.1689  141.9649  169.0945 C.ar    1  UNL1        0.0297
     17 C         142.9779  140.5462  169.5427 C.ar    1  UNL1        0.1401
     18 F         143.0710  140.2009  170.9994 F       1  UNL1       -0.2042
     19 C         142.6939  139.4729  168.5341 C.ar    1  UNL1        0.0297
     20 C         142.6008  139.8182  167.0774 C.ar    1  UNL1        0.0039
     21 C         142.9801  143.2734  157.8281 C.3     1  UNL1        0.1517
     22 N         142.7296  144.7074  157.4658 N.3     1  UNL1       -0.3135
     23 H         142.1620  145.1469  158.1904 H       1  UNL1        0.1193
     24 H         142.2364  144.7516  156.5741 H       1  UNL1        0.1193
     25 N         140.0433  141.8068  164.9647 N.pl3   1  UNL1       -0.2980
     26 H         139.5365  142.6430  165.0797 H       1  UNL1        0.1536
     27 C         139.4233  140.4956  165.3468 C.ar    1  UNL1        0.0518
     28 C         138.9445  140.2731  166.7509 C.ar    1  UNL1        0.0171
     29 C         138.3245  138.9618  167.1331 C.ar    1  UNL1        0.0332
     30 C         138.1832  137.8729  166.1112 C.ar    1  UNL1        0.1675
     31 F         137.5632  136.5616  166.4934 F       1  UNL1       -0.2018
     32 C         138.6620  138.0953  164.7072 C.ar    1  UNL1        0.1686
     33 F         138.5206  137.0063  163.6853 F       1  UNL1       -0.2018
     34 C         139.2820  139.4066  164.3250 C.ar    1  UNL1        0.0466
@<TRIPOS>BOND
     1     1     2    1
     2     2     3    1
     3     2     4    1
     4     4     5   ar
     5     5     6   ar
     6     6    14    1
     7    14    15   ar
     8    15    16   ar
     9    16    17   ar
    10    17    18    1
    11    17    19   ar
    12    19    20   ar
    13     6     7   ar
    14     7    25    1
    15    25    27    1
    16    27    28   ar
    17    28    29   ar
    18    29    30   ar
    19    30    31    1
    20    30    32   ar
    21    32    33    1
    22    32    34   ar
    23     7     8   ar
    24     8     9    1
    25     9    10    1
    26    10    11    1
    27    11    12   am
    28    12    13    2
    29    12    21    1
    30    21    22    1
    31    11     2    1
    32     8     4   ar
    33    20    14   ar
    34    34    27   ar
    35    25    26    1
    36    22    23    1
    37    22    24    1
@<TRIPOS>MOLECULE
*****
 34 37 0 0 0
SMALL
GASTEIGER

@<TRIPOS>ATOM
      1 C         139.0151  139.8529  168.9282 C.3     1  UNL1        0.0276
      2 C         139.6702  140.3753  167.6840 C.3     1  UNL1        0.1109
      3 C         138.6284  139.4840  167.0754 C.3     1  UNL1        0.0276
      4 C         139.9634  140.5881  166.2284 C.ar    1  UNL1        0.1375
      5 N         139.3351  140.0300  164.9859 N.ar    1  UNL1       -0.2280
      6 C         140.0542  140.6078  163.8031 C.ar    1  UNL1        0.1125
      7 C         141.1270  141.5229  164.3146 C.ar    1  UNL1        0.1318
      8 N         141.0709  141.5108  165.8135 N.ar    1  UNL1       -0.3006
      9 C         141.8852  142.2206  166.8542 C.3     1  UNL1        0.1299
     10 C         141.5919  142.0078  168.3097 C.3     1  UNL1        0.1182
     11 N         140.4844  141.0851  168.7246 N.am    1  UNL1       -0.2732
     12 C         140.1912  140.8724  170.1803 C.2     1  UNL1        0.2418
     13 O         139.0837  139.9497  170.5952 O.2     1  UNL1       -0.2734
     14 C         139.7534  140.3208  162.3619 C.ar    1  UNL1        0.0205
     15 C         140.5982  139.3435  161.5996 C.ar    1  UNL1        0.0039
     16 C         140.2974  139.0565  160.1584 C.ar    1  UNL1        0.0297
     17 C         139.1518  139.7468  159.4794 C.ar    1  UNL1        0.1401
     18 F         138.8510  139.4598  158.0382 F       1  UNL1       -0.2042
     19 C         138.3070  140.7241  160.2417 C.ar    1  UNL1        0.0297
     20 C         138.6078  141.0111  161.6829 C.ar    1  UNL1        0.0039
     21 C         141.0055  141.5822  171.2209 C.3     1  UNL1        0.1517
     22 N         142.1498  140.8775  171.8874 N.3     1  UNL1       -0.3135
     23 H         141.7925  140.1042  172.4484 H       1  UNL1        0.1193
     24 H         142.6482  141.5327  172.4897 H       1  UNL1        0.1193
     25 N         142.0874  142.3118  163.4747 N.pl3   1  UNL1       -0.2980
     26 H         143.0562  142.2359  163.6321 H       1  UNL1        0.1536
     27 C         141.5716  143.2162  162.3950 C.ar    1  UNL1        0.0518
     28 C         141.7875  142.8622  160.9534 C.ar    1  UNL1        0.0171
     29 C         141.2718  143.7667  159.8736 C.ar    1  UNL1        0.0332
     30 C         140.5401  145.0252  160.2354 C.ar    1  UNL1        0.1675
     31 F         140.0244  145.9297  159.1556 F       1  UNL1       -0.2018
     32 C         140.3242  145.3792  161.6769 C.ar    1  UNL1        0.1686
     33 F         139.5926  146.6377  162.0387 F       1  UNL1       -0.2018
     34 C         140.8400  144.4747  162.7567 C.ar    1  UNL1        0.0466
@<TRIPOS>BOND
     1     1     2    1
     2     2     3    1
     3     2     4    1
     4     4     5   ar
     5     5     6   ar
     6     6    14    1
     7    14    15   ar
     8    15    16   ar
     9    16    17   ar
    10    17    18    1
    11    17    19   ar
    12    19    20   ar
    13     6     7   ar
    14     7    25    1
    15    25    27    1
    16    27    28   ar
    17    28    29   ar
    18    29    30   ar
    19    30    31    1
    20    30    32   ar
    21    32    33    1
    22    32    34   ar
    23     7     8   ar
    24     8     9    1
    25     9    10    1
    26    10    11    1
    27    11    12   am
    28    12    13    2
    29    12    21    1
    30    21    22    1
    31    11     2    1
    32     8     4   ar
    33    20    14   ar
    34    34    27   ar
    35    25    26    1
    36    22    23    1
    37    22    24    1
@<TRIPOS>MOLECULE
*****
 34 37 0 0 0
SMALL
GASTEIGER

@<TRIPOS>ATOM
      1 C         142.9281  138.9639  168.2827 C.3     1  UNL1        0.0276
      2 C         142.2042  139.3966  167.0423 C.3     1  UNL1        0.1109
      3 C         143.3842  138.7043  166.4271 C.3     1  UNL1        0.0276
      4 C         141.8901  139.5890  165.5882 C.ar    1  UNL1        0.1375
      5 N         142.6114  139.1701  164.3416 N.ar    1  UNL1       -0.2280
      6 C         141.8147  139.6455  163.1630 C.ar    1  UNL1        0.1125
      7 C         140.6008  140.3582  163.6812 C.ar    1  UNL1        0.1318
      8 N         140.6474  140.3233  165.1801 N.ar    1  UNL1       -0.3006
      9 C         139.7188  140.8653  166.2260 C.3     1  UNL1        0.1299
     10 C         140.0330  140.6729  167.6801 C.3     1  UNL1        0.1182
     11 N         141.2756  139.9386  168.0882 N.am    1  UNL1       -0.2732
     12 C         141.5897  139.7463  169.5423 C.2     1  UNL1        0.2418
     13 O         142.8324  139.0120  169.9504 O.2     1  UNL1       -0.2734
     14 C         142.1694  139.4437  161.7196 C.ar    1  UNL1        0.0205
     15 C         143.3830  140.1121  161.1450 C.ar    1  UNL1        0.0039
     16 C         143.7378  139.9103  159.7016 C.ar    1  UNL1        0.0297
     17 C         142.8789  139.0399  158.8328 C.ar    1  UNL1        0.1401
     18 F         143.2337  138.8381  157.3894 F       1  UNL1       -0.2042
     19 C         141.6653  138.3715  159.4074 C.ar    1  UNL1        0.0297
     20 C         141.3105  138.5733  160.8508 C.ar    1  UNL1        0.0039
     21 C         140.6612  140.2882  170.5883 C.3     1  UNL1        0.1517
     22 N         139.6249  139.3967  171.2058 N.3     1  UNL1       -0.3135
     23 H         138.9436  139.1254  170.4968 H       1  UNL1        0.1193
     24 H         139.1515  139.8964  171.9586 H       1  UNL1        0.1193
     25 N         139.5286  140.9942  162.8471 N.pl3   1  UNL1       -0.2980
     26 H         138.8063  140.4421  162.4693 H       1  UNL1        0.1536
     27 C         139.5567  142.4714  162.5885 C.ar    1  UNL1        0.0518
     28 C         138.5415  143.3658  163.2363 C.ar    1  UNL1        0.0171
     29 C         138.5696  144.8431  162.9778 C.ar    1  UNL1        0.0332
     30 C         139.6129  145.4260  162.0713 C.ar    1  UNL1        0.1675
     31 F         139.6410  146.9033  161.8127 F       1  UNL1       -0.2018
     32 C         140.6280  144.5318  161.4234 C.ar    1  UNL1        0.1686
     33 F         141.6713  145.1148  160.5169 F       1  UNL1       -0.2018
     34 C         140.6000  143.0545  161.6820 C.ar    1  UNL1        0.0466
@<TRIPOS>BOND
     1     1     2    1
     2     2     3    1
     3     2     4    1
     4     4     5   ar
     5     5     6   ar
     6     6    14    1
     7    14    15   ar
     8    15    16   ar
     9    16    17   ar
    10    17    18    1
    11    17    19   ar
    12    19    20   ar
    13     6     7   ar
    14     7    25    1
    15    25    27    1
    16    27    28   ar
    17    28    29   ar
    18    29    30   ar
    19    30    31    1
    20    30    32   ar
    21    32    33    1
    22    32    34   ar
    23     7     8   ar
    24     8     9    1
    25     9    10    1
    26    10    11    1
    27    11    12   am
    28    12    13    2
    29    12    21    1
    30    21    22    1
    31    11     2    1
    32     8     4   ar
    33    20    14   ar
    34    34    27   ar
    35    25    26    1
    36    22    23    1
    37    22    24    1
@<TRIPOS>MOLECULE
*****
 34 37 0 0 0
SMALL
GASTEIGER

@<TRIPOS>ATOM
      1 C         141.3195  140.0009  157.0628 C.3     1  UNL1        0.0276
      2 C         141.3704  140.0010  158.5620 C.3     1  UNL1        0.1109
      3 C         140.5711  141.2487  158.3284 C.3     1  UNL1        0.0276
      4 C         141.1438  140.4344  159.9800 C.ar    1  UNL1        0.1375
      5 N         140.4187  141.6091  160.5668 N.ar    1  UNL1       -0.2280
      6 C         140.5254  141.5209  162.0604 C.ar    1  UNL1        0.1125
      7 C         141.3166  140.2917  162.3967 C.ar    1  UNL1        0.1318
      8 N         141.6988  139.6202  161.1109 N.ar    1  UNL1       -0.3006
      9 C         142.4804  138.3726  160.8239 C.3     1  UNL1        0.1299
     10 C         142.7070  137.9392  159.4059 C.3     1  UNL1        0.1182
     11 N         142.1521  138.7534  158.2749 N.am    1  UNL1       -0.2732
     12 C         142.3788  138.3199  156.8569 C.2     1  UNL1        0.2418
     13 O         141.8238  139.1342  155.7259 O.2     1  UNL1       -0.2734
     14 C         139.9433  142.4914  163.0448 C.ar    1  UNL1        0.0205
     15 C         140.7626  143.6509  163.5290 C.ar    1  UNL1        0.0039
     16 C         140.1804  144.6214  164.5134 C.ar    1  UNL1        0.0297
     17 C         138.7790  144.4326  165.0137 C.ar    1  UNL1        0.1401
     18 F         138.1969  145.4031  165.9981 F       1  UNL1       -0.2042
     19 C         137.9598  143.2731  164.5295 C.ar    1  UNL1        0.0297
     20 C         138.5419  142.3025  163.5451 C.ar    1  UNL1        0.0039
     21 C         143.1604  137.0723  156.5698 C.3     1  UNL1        0.1517
     22 N         144.4144  137.1449  155.7498 N.3     1  UNL1       -0.3135
     23 H         144.1817  137.4236  154.7966 H       1  UNL1        0.1193
     24 H         144.8650  136.2299  155.7361 H       1  UNL1        0.1193
     25 N         141.6646  139.8172  163.7764 N.pl3   1  UNL1       -0.2980
     26 H         142.6078  139.7043  164.0349 H       1  UNL1        0.1536
     27 C         140.5755  139.5147  164.7625 C.ar    1  UNL1        0.0518
     28 C         139.5521  138.4633  164.4505 C.ar    1  UNL1        0.0171
     29 C         138.4629  138.1608  165.4365 C.ar    1  UNL1        0.0332
     30 C         138.3972  138.9097  166.7346 C.ar    1  UNL1        0.1675
     31 F         137.3080  138.6072  167.7206 F       1  UNL1       -0.2018
     32 C         139.4205  139.9611  167.0465 C.ar    1  UNL1        0.1686
     33 F         139.3547  140.7100  168.3445 F       1  UNL1       -0.2018
     34 C         140.5096  140.2636  166.0605 C.ar    1  UNL1        0.0466
@<TRIPOS>BOND
     1     1     2    1
     2     2     3    1
     3     2     4    1
     4     4     5   ar
     5     5     6   ar
     6     6    14    1
     7    14    15   ar
     8    15    16   ar
     9    16    17   ar
    10    17    18    1
    11    17    19   ar
    12    19    20   ar
    13     6     7   ar
    14     7    25    1
    15    25    27    1
    16    27    28   ar
    17    28    29   ar
    18    29    30   ar
    19    30    31    1
    20    30    32   ar
    21    32    33    1
    22    32    34   ar
    23     7     8   ar
    24     8     9    1
    25     9    10    1
    26    10    11    1
    27    11    12   am
    28    12    13    2
    29    12    21    1
    30    21    22    1
    31    11     2    1
    32     8     4   ar
    33    20    14   ar
    34    34    27   ar
    35    25    26    1
    36    22    23    1
    37    22    24    1
@<TRIPOS>MOLECULE
*****
 34 37 0 0 0
SMALL
GASTEIGER

@<TRIPOS>ATOM
      1 C         139.2842  139.7657  168.9519 C.3     1  UNL1        0.0276
      2 C         139.5752  140.5134  167.6844 C.3     1  UNL1        0.1109
      3 C         138.9973  139.2514  167.1157 C.3     1  UNL1        0.0276
      4 C         139.6654  140.8227  166.2195 C.ar    1  UNL1        0.1375
      5 N         139.2779  140.0369  165.0020 N.ar    1  UNL1       -0.2280
      6 C         139.6055  140.8629  163.7935 C.ar    1  UNL1        0.1125
      7 C         140.1954  142.1592  164.2641 C.ar    1  UNL1        0.1318
      8 N         140.2325  142.1344  165.7635 N.ar    1  UNL1       -0.3006
      9 C         140.7094  143.1367  166.7724 C.3     1  UNL1        0.1299
     10 C         140.6191  142.8273  168.2373 C.3     1  UNL1        0.1182
     11 N         140.0520  141.5157  168.6934 N.am    1  UNL1       -0.2732
     12 C         139.9618  141.2063  170.1584 C.2     1  UNL1        0.2418
     13 O         139.3947  139.8947  170.6144 O.2     1  UNL1       -0.2734
     14 C         139.3822  140.4628  162.3652 C.ar    1  UNL1        0.0205
     15 C         138.0499  140.7018  161.7188 C.ar    1  UNL1        0.0039
     16 C         137.8267  140.3017  160.2905 C.ar    1  UNL1        0.0297
     17 C         138.9358  139.6626  159.5085 C.ar    1  UNL1        0.1401
     18 F         138.7126  139.2626  158.0802 F       1  UNL1       -0.2042
     19 C         140.2681  139.4237  160.1549 C.ar    1  UNL1        0.0297
     20 C         140.4913  139.8238  161.5832 C.ar    1  UNL1        0.0039
     21 C         140.4387  142.2086  171.1673 C.3     1  UNL1        0.1517
     22 N         141.8063  142.0750  171.7688 N.3     1  UNL1       -0.3135
     23 H         141.8467  141.2286  172.3367 H       1  UNL1        0.1193
     24 H         142.0010  142.8870  172.3545 H       1  UNL1        0.1193
     25 N         140.6658  143.2830  163.3891 N.pl3   1  UNL1       -0.2980
     26 H         140.1637  144.1294  163.3625 H       1  UNL1        0.1536
     27 C         141.9011  143.1173  162.5546 C.ar    1  UNL1        0.0518
     28 C         141.8318  143.3012  161.0674 C.ar    1  UNL1        0.0171
     29 C         143.0671  143.1355  160.2328 C.ar    1  UNL1        0.0332
     30 C         144.3718  142.7859  160.8854 C.ar    1  UNL1        0.1675
     31 F         145.6071  142.6203  160.0508 F       1  UNL1       -0.2018
     32 C         144.4410  142.6021  162.3724 C.ar    1  UNL1        0.1686
     33 F         145.7457  142.2525  163.0249 F       1  UNL1       -0.2018
     34 C         143.2057  142.7678  163.2070 C.ar    1  UNL1        0.0466
@<TRIPOS>BOND
     1     1     2    1
     2     2     3    1
     3     2     4    1
     4     4     5   ar
     5     5     6   ar
     6     6    14    1
     7    14    15   ar
     8    15    16   ar
     9    16    17   ar
    10    17    18    1
    11    17    19   ar
    12    19    20   ar
    13     6     7   ar
    14     7    25    1
    15    25    27    1
    16    27    28   ar
    17    28    29   ar
    18    29    30   ar
    19    30    31    1
    20    30    32   ar
    21    32    33    1
    22    32    34   ar
    23     7     8   ar
    24     8     9    1
    25     9    10    1
    26    10    11    1
    27    11    12   am
    28    12    13    2
    29    12    21    1
    30    21    22    1
    31    11     2    1
    32     8     4   ar
    33    20    14   ar
    34    34    27   ar
    35    25    26    1
    36    22    23    1
    37    22    24    1
@<TRIPOS>MOLECULE
*****
 34 37 0 0 0
SMALL
GASTEIGER

@<TRIPOS>ATOM
      1 C         140.8026  139.3538  156.9635 C.3     1  UNL1        0.0276
      2 C         141.0272  139.5419  158.4346 C.3     1  UNL1        0.1109
      3 C         139.9711  140.5804  158.1975 C.3     1  UNL1        0.0276
      4 C         140.8851  140.0907  159.8234 C.ar    1  UNL1        0.1375
      5 N         140.0116  141.1696  160.3917 N.ar    1  UNL1       -0.2280
      6 C         140.3077  141.2814  161.8580 C.ar    1  UNL1        0.1125
      7 C         141.3642  140.2716  162.1958 C.ar    1  UNL1        0.1318
      8 N         141.7210  139.5356  160.9383 N.ar    1  UNL1       -0.3006
      9 C         142.6991  138.4318  160.6646 C.3     1  UNL1        0.1299
     10 C         142.8412  137.8831  159.2759 C.3     1  UNL1        0.1182
     11 N         142.0053  138.4381  158.1609 N.am    1  UNL1       -0.2732
     12 C         142.1474  137.8893  156.7721 C.2     1  UNL1        0.2418
     13 O         141.3115  138.4443  155.6571 O.2     1  UNL1       -0.2734
     14 C         139.6610  142.2355  162.8178 C.ar    1  UNL1        0.0205
     15 C         140.2774  143.5797  163.0692 C.ar    1  UNL1        0.0039
     16 C         139.6307  144.5338  164.0290 C.ar    1  UNL1        0.0297
     17 C         138.3674  144.1438  164.7375 C.ar    1  UNL1        0.1401
     18 F         137.7207  145.0979  165.6974 F       1  UNL1       -0.2042
     19 C         137.7509  142.7997  164.4862 C.ar    1  UNL1        0.0297
     20 C         138.3977  141.8455  163.5263 C.ar    1  UNL1        0.0039
     21 C         143.1255  136.7855  156.4983 C.3     1  UNL1        0.1517
     22 N         144.3683  137.0641  155.7059 N.3     1  UNL1       -0.3135
     23 H         144.1137  137.3078  154.7487 H       1  UNL1        0.1193
     24 H         144.9606  136.2336  155.6992 H       1  UNL1        0.1193
     25 N         141.9594  140.0385  163.5528 N.pl3   1  UNL1       -0.2980
     26 H         141.8025  139.1858  164.0192 H       1  UNL1        0.1536
     27 C         142.7935  141.1045  164.1991 C.ar    1  UNL1        0.0518
     28 C         143.7443  141.9176  163.3715 C.ar    1  UNL1        0.0171
     29 C         144.5785  142.9837  164.0177 C.ar    1  UNL1        0.0332
     30 C         144.4619  143.2366  165.4917 C.ar    1  UNL1        0.1675
     31 F         145.2961  144.3027  166.1379 F       1  UNL1       -0.2018
     32 C         143.5111  142.4235  166.3192 C.ar    1  UNL1        0.1686
     33 F         143.3946  142.6765  167.7932 F       1  UNL1       -0.2018
     34 C         142.6769  141.3575  165.6730 C.ar    1  UNL1        0.0466
@<TRIPOS>BOND
     1     1     2    1
     2     2     3    1
     3     2     4    1
     4     4     5   ar
     5     5     6   ar
     6     6    14    1
     7    14    15   ar
     8    15    16   ar
     9    16    17   ar
    10    17    18    1
    11    17    19   ar
    12    19    20   ar
    13     6     7   ar
    14     7    25    1
    15    25    27    1
    16    27    28   ar
    17    28    29   ar
    18    29    30   ar
    19    30    31    1
    20    30    32   ar
    21    32    33    1
    22    32    34   ar
    23     7     8   ar
    24     8     9    1
    25     9    10    1
    26    10    11    1
    27    11    12   am
    28    12    13    2
    29    12    21    1
    30    21    22    1
    31    11     2    1
    32     8     4   ar
    33    20    14   ar
    34    34    27   ar
    35    25    26    1
    36    22    23    1
    37    22    24    1
@<TRIPOS>MOLECULE
*****
 34 37 0 0 0
SMALL
GASTEIGER

@<TRIPOS>ATOM
      1 C         143.2807  141.9652  168.4188 C.3     1  UNL1        0.0276
      2 C         142.2688  141.9989  167.3120 C.3     1  UNL1        0.1109
      3 C         143.3511  142.8390  166.7012 C.3     1  UNL1        0.0276
      4 C         141.6329  142.3243  165.9931 C.ar    1  UNL1        0.1375
      5 N         142.1073  143.1334  164.8225 N.ar    1  UNL1       -0.2280
      6 C         141.0337  143.1071  163.7752 C.ar    1  UNL1        0.1125
      7 C         139.8958  142.2818  164.2986 C.ar    1  UNL1        0.1318
      8 N         140.2661  141.7980  165.6693 N.ar    1  UNL1       -0.3006
      9 C         139.5353  140.9461  166.6644 C.3     1  UNL1        0.1299
     10 C         140.1713  140.6207  167.9833 C.3     1  UNL1        0.1182
     11 N         141.5380  141.1471  168.3071 N.am    1  UNL1       -0.2732
     12 C         142.1740  140.8216  169.6261 C.2     1  UNL1        0.2418
     13 O         143.5408  141.3479  169.9499 O.2     1  UNL1       -0.2734
     14 C         141.0885  143.7869  162.4392 C.ar    1  UNL1        0.0205
     15 C         140.2768  145.0240  162.1933 C.ar    1  UNL1        0.0039
     16 C         140.3315  145.7038  160.8572 C.ar    1  UNL1        0.0297
     17 C         141.1980  145.1463  159.7671 C.ar    1  UNL1        0.1401
     18 F         141.2527  145.8260  158.4311 F       1  UNL1       -0.2042
     19 C         142.0096  143.9091  160.0130 C.ar    1  UNL1        0.0297
     20 C         141.9549  143.2294  161.3490 C.ar    1  UNL1        0.0039
     21 C         141.4432  139.9697  170.6212 C.3     1  UNL1        0.1517
     22 N         140.6789  140.6124  171.7406 N.3     1  UNL1       -0.3135
     23 H         141.3287  141.0874  172.3671 H       1  UNL1        0.1193
     24 H         140.1687  139.8970  172.2586 H       1  UNL1        0.1193
     25 N         138.6128  141.9912  163.5778 N.pl3   1  UNL1       -0.2980
     26 H         137.7524  142.2488  163.9810 H       1  UNL1        0.1536
     27 C         138.6407  141.3081  162.2427 C.ar    1  UNL1        0.0518
     28 C         138.3366  142.0852  160.9961 C.ar    1  UNL1        0.0171
     29 C         138.3645  141.4022  159.6609 C.ar    1  UNL1        0.0332
     30 C         138.6964  139.9420  159.5723 C.ar    1  UNL1        0.1675
     31 F         138.7242  139.2590  158.2371 F       1  UNL1       -0.2018
     32 C         139.0004  139.1650  160.8188 C.ar    1  UNL1        0.1686
     33 F         139.3323  137.7048  160.7300 F       1  UNL1       -0.2018
     34 C         138.9726  139.8480  162.1539 C.ar    1  UNL1        0.0466
@<TRIPOS>BOND
     1     1     2    1
     2     2     3    1
     3     2     4    1
     4     4     5   ar
     5     5     6   ar
     6     6    14    1
     7    14    15   ar
     8    15    16   ar
     9    16    17   ar
    10    17    18    1
    11    17    19   ar
    12    19    20   ar
    13     6     7   ar
    14     7    25    1
    15    25    27    1
    16    27    28   ar
    17    28    29   ar
    18    29    30   ar
    19    30    31    1
    20    30    32   ar
    21    32    33    1
    22    32    34   ar
    23     7     8   ar
    24     8     9    1
    25     9    10    1
    26    10    11    1
    27    11    12   am
    28    12    13    2
    29    12    21    1
    30    21    22    1
    31    11     2    1
    32     8     4   ar
    33    20    14   ar
    34    34    27   ar
    35    25    26    1
    36    22    23    1
    37    22    24    1
@<TRIPOS>MOLECULE
*****
 34 37 0 0 0
SMALL
GASTEIGER

@<TRIPOS>ATOM
      1 C         139.4477  139.9606  168.3633 C.3     1  UNL1        0.0276
      2 C         140.2567  139.8588  167.1041 C.3     1  UNL1        0.1109
      3 C         138.8771  139.9438  166.5213 C.3     1  UNL1        0.0276
      4 C         140.5865  139.7866  165.6427 C.ar    1  UNL1        0.1375
      5 N         139.7230  139.8119  164.4164 N.ar    1  UNL1       -0.2280
      6 C         140.6176  139.7056  163.2171 C.ar    1  UNL1        0.1125
      7 C         142.0341  139.6147  163.7022 C.ar    1  UNL1        0.1318
      8 N         142.0149  139.6647  165.2013 N.ar    1  UNL1       -0.3006
      9 C         143.1135  139.6151  166.2213 C.3     1  UNL1        0.1299
     10 C         142.7837  139.6873  167.6828 C.3     1  UNL1        0.1182
     11 N         141.3553  139.8092  168.1242 N.am    1  UNL1       -0.2732
     12 C         141.0255  139.8814  169.5858 C.2     1  UNL1        0.2418
     13 O         139.5971  140.0033  170.0272 O.2     1  UNL1       -0.2734
     14 C         140.1737  139.6926  161.7844 C.ar    1  UNL1        0.0205
     15 C         139.8336  140.9794  161.0928 C.ar    1  UNL1        0.0039
     16 C         139.3897  140.9664  159.6601 C.ar    1  UNL1        0.0297
     17 C         139.2860  139.6665  158.9188 C.ar    1  UNL1        0.1401
     18 F         138.8421  139.6535  157.4861 F       1  UNL1       -0.2042
     19 C         139.6262  138.3797  159.6103 C.ar    1  UNL1        0.0297
     20 C         140.0700  138.3927  161.0431 C.ar    1  UNL1        0.0039
     21 C         142.1241  139.8317  170.6058 C.3     1  UNL1        0.1517
     22 N         142.0427  140.6836  171.8378 N.3     1  UNL1       -0.3135
     23 H         142.0981  141.6676  171.5751 H       1  UNL1        0.1193
     24 H         142.8164  140.4541  172.4616 H       1  UNL1        0.1193
     25 N         143.2554  139.4947  162.8397 N.pl3   1  UNL1       -0.2980
     26 H         143.9202  138.7920  163.0227 H       1  UNL1        0.1536
     27 C         143.4640  140.4454  161.6984 C.ar    1  UNL1        0.0518
     28 C         143.4050  141.9255  161.9347 C.ar    1  UNL1        0.0171
     29 C         143.6135  142.8762  160.7934 C.ar    1  UNL1        0.0332
     30 C         143.8810  142.3468  159.4156 C.ar    1  UNL1        0.1675
     31 F         144.0895  143.2975  158.2743 F       1  UNL1       -0.2018
     32 C         143.9400  140.8668  159.1793 C.ar    1  UNL1        0.1686
     33 F         144.2075  140.3374  157.8015 F       1  UNL1       -0.2018
     34 C         143.7314  139.9160  160.3206 C.ar    1  UNL1        0.0466
@<TRIPOS>BOND
     1     1     2    1
     2     2     3    1
     3     2     4    1
     4     4     5   ar
     5     5     6   ar
     6     6    14    1
     7    14    15   ar
     8    15    16   ar
     9    16    17   ar
    10    17    18    1
    11    17    19   ar
    12    19    20   ar
    13     6     7   ar
    14     7    25    1
    15    25    27    1
    16    27    28   ar
    17    28    29   ar
    18    29    30   ar
    19    30    31    1
    20    30    32   ar
    21    32    33    1
    22    32    34   ar
    23     7     8   ar
    24     8     9    1
    25     9    10    1
    26    10    11    1
    27    11    12   am
    28    12    13    2
    29    12    21    1
    30    21    22    1
    31    11     2    1
    32     8     4   ar
    33    20    14   ar
    34    34    27   ar
    35    25    26    1
    36    22    23    1
    37    22    24    1
