@<TRIPOS>MOLECULE
*****
 43 46 0 0 0
SMALL
GASTEIGER

@<TRIPOS>ATOM
      1 N         144.2592  138.7723  161.9586 N.am    1  UNL1       -0.3043
      2 C         144.6405  139.8329  162.9483 C.2     1  UNL1        0.2225
      3 O         144.6847  141.2716  162.5262 O.2     1  UNL1       -0.2751
      4 H         144.2302  137.8280  162.2356 H       1  UNL1        0.1494
      5 C         143.9221  139.1503  160.5467 C.3     1  UNL1        0.0911
      6 C         138.7523  140.1831  160.2510 C.2     1  UNL1        0.2492
      7 O         137.5894  139.8118  159.3794 O.2     1  UNL1       -0.2699
      8 N         140.1160  139.6319  159.9571 N.am    1  UNL1       -0.2760
      9 C         140.4683  138.7035  158.8329 C.3     1  UNL1        0.0938
     10 C         141.9369  138.4101  158.9168 C.3     1  UNL1        0.0249
     11 C         142.4923  139.1572  160.0930 C.3     1  UNL1        0.0412
     12 C         141.3669  139.9122  160.7360 C.3     1  UNL1        0.0954
     13 C         138.2061  141.4677  163.9661 C.ar    1  UNL1        0.1756
     14 C         138.4069  140.5452  162.8005 C.ar    1  UNL1        0.0448
     15 C         138.5514  141.1057  161.4166 C.ar    1  UNL1        0.0598
     16 C         138.4951  142.5886  161.1984 C.ar    1  UNL1        0.0448
     17 C         138.2942  143.5111  162.3639 C.ar    1  UNL1        0.1756
     18 C         138.1497  142.9507  163.7478 C.ar    1  UNL1        0.2061
     19 C         138.0859  139.4229  165.5642 C.3     1  UNL1        0.2526
     20 O         138.0616  140.9073  165.3499 O.3     1  UNL1       -0.4683
     21 O         138.2378  144.9941  162.1457 O.3     1  UNL1       -0.4683
     22 C         139.5078  145.7843  162.0326 C.3     1  UNL1        0.2526
     23 O         137.9488  143.8732  164.9134 O.3     1  UNL1       -0.4654
     24 C         139.1222  144.5888  165.5144 C.3     1  UNL1        0.2528
     25 C         144.9776  139.4549  164.3602 C.3     1  UNL1        0.0850
     26 C         143.9730  138.7243  165.2012 C.3     1  UNL1        0.0096
     27 C         142.5840  138.4971  164.6824 C.3     1  UNL1        0.0012
     28 C         141.4985  139.4865  164.9871 C.3     1  UNL1        0.0087
     29 C         141.7951  140.6881  165.8345 C.3     1  UNL1        0.0446
     30 C         141.5015  140.6596  167.3051 C.ar    1  UNL1       -0.0183
     31 C         142.3385  139.8164  168.2208 C.ar    1  UNL1       -0.0017
     32 C         142.0448  139.7879  169.6916 C.ar    1  UNL1        0.0293
     33 C         140.9142  140.6025  170.2466 C.ar    1  UNL1        0.1401
     34 F         140.6206  140.5740  171.7173 F       1  UNL1       -0.2042
     35 C         140.0772  141.4457  169.3309 C.ar    1  UNL1        0.0293
     36 C         140.3708  141.4743  167.8602 C.ar    1  UNL1       -0.0017
     37 C         142.3854  141.9182  165.2112 C.ar    1  UNL1       -0.0183
     38 C         143.6243  142.5326  165.7922 C.ar    1  UNL1       -0.0017
     39 C         144.2146  143.7627  165.1689 C.ar    1  UNL1        0.0293
     40 C         143.5659  144.3784  163.9647 C.ar    1  UNL1        0.1401
     41 F         144.1562  145.6085  163.3414 F       1  UNL1       -0.2042
     42 C         142.3269  143.7640  163.3838 C.ar    1  UNL1        0.0293
     43 C         141.7367  142.5339  164.0070 C.ar    1  UNL1       -0.0017
@<TRIPOS>BOND
     1    19    20    1
     2    20    13    1
     3    13    14   ar
     4    14    15   ar
     5    15     6    1
     6     6     7    2
     7     6     8   am
     8     8     9    1
     9     9    10    1
    10    10    11    1
    11    11     5    1
    12     5     1    1
    13     1     2   am
    14     2     3    2
    15     2    25    1
    16    25    26    1
    17    26    27    1
    18    27    28    1
    19    28    29    1
    20    29    30    1
    21    30    31   ar
    22    31    32   ar
    23    32    33   ar
    24    33    34    1
    25    33    35   ar
    26    35    36   ar
    27    29    37    1
    28    37    38   ar
    29    38    39   ar
    30    39    40   ar
    31    40    41    1
    32    40    42   ar
    33    42    43   ar
    34    11    12    1
    35    15    16   ar
    36    16    17   ar
    37    17    21    1
    38    21    22    1
    39    17    18   ar
    40    18    23    1
    41    23    24    1
    42    18    13   ar
    43    12     8    1
    44    36    30   ar
    45    43    37   ar
    46     1     4    1
@<TRIPOS>MOLECULE
*****
 43 46 0 0 0
SMALL
GASTEIGER

@<TRIPOS>ATOM
      1 N         144.3463  138.8561  162.0141 N.am    1  UNL1       -0.3043
      2 C         144.7729  139.9304  162.9701 C.2     1  UNL1        0.2225
      3 O         144.8915  141.3496  162.4992 O.2     1  UNL1       -0.2751
      4 H         144.2684  137.9247  162.3232 H       1  UNL1        0.1494
      5 C         144.0382  139.2011  160.5871 C.3     1  UNL1        0.0911
      6 C         138.8720  140.2249  160.2088 C.2     1  UNL1        0.2492
      7 O         137.7262  139.8607  159.3119 O.2     1  UNL1       -0.2699
      8 N         140.2423  139.6803  159.9337 N.am    1  UNL1       -0.2760
      9 C         140.6174  138.7655  158.8056 C.3     1  UNL1        0.0938
     10 C         142.0850  138.4747  158.9131 C.3     1  UNL1        0.0249
     11 C         142.6170  139.2097  160.1076 C.3     1  UNL1        0.0412
     12 C         141.4781  139.9547  160.7383 C.3     1  UNL1        0.0954
     13 C         138.3433  143.5262  162.3470 C.ar    1  UNL1        0.1756
     14 C         138.5677  142.6174  161.1750 C.ar    1  UNL1        0.0448
     15 C         138.6476  141.1337  161.3809 C.ar    1  UNL1        0.0598
     16 C         138.5030  140.5589  162.7588 C.ar    1  UNL1        0.0448
     17 C         138.2785  141.4677  163.9308 C.ar    1  UNL1        0.1756
     18 C         138.1987  142.9513  163.7249 C.ar    1  UNL1        0.2061
     19 C         139.5196  145.8275  162.0821 C.3     1  UNL1        0.2526
     20 O         138.2634  145.0098  162.1411 O.3     1  UNL1       -0.4683
     21 O         138.1339  140.8929  165.3088 O.3     1  UNL1       -0.4683
     22 C         138.1347  139.4058  165.5050 C.3     1  UNL1        0.2526
     23 O         137.9742  143.8602  164.8970 O.3     1  UNL1       -0.4654
     24 C         139.1408  144.5297  165.5611 C.3     1  UNL1        0.2528
     25 C         145.0809  139.5855  164.3970 C.3     1  UNL1        0.0850
     26 C         144.0926  138.8023  165.2094 C.3     1  UNL1        0.0096
     27 C         142.7160  138.5452  164.6717 C.3     1  UNL1        0.0012
     28 C         141.5691  139.4113  165.1014 C.3     1  UNL1        0.0087
     29 C         141.8261  140.6526  165.9034 C.3     1  UNL1        0.0446
     30 C         141.5215  140.6730  167.3720 C.ar    1  UNL1       -0.0183
     31 C         142.2429  139.7417  168.3005 C.ar    1  UNL1       -0.0017
     32 C         141.9384  139.7621  169.7692 C.ar    1  UNL1        0.0293
     33 C         140.9124  140.7138  170.3093 C.ar    1  UNL1        0.1401
     34 F         140.6079  140.7342  171.7779 F       1  UNL1       -0.2042
     35 C         140.1910  141.6451  169.3807 C.ar    1  UNL1        0.0293
     36 C         140.4956  141.6247  167.9120 C.ar    1  UNL1       -0.0017
     37 C         142.3875  141.8734  165.2368 C.ar    1  UNL1       -0.0183
     38 C         143.5745  142.5728  165.8299 C.ar    1  UNL1       -0.0017
     39 C         144.1360  143.7937  165.1633 C.ar    1  UNL1        0.0293
     40 C         143.5105  144.3151  163.9036 C.ar    1  UNL1        0.1401
     41 F         144.0719  145.5359  163.2370 F       1  UNL1       -0.2042
     42 C         142.3234  143.6156  163.3105 C.ar    1  UNL1        0.0293
     43 C         141.7619  142.3948  163.9771 C.ar    1  UNL1       -0.0017
@<TRIPOS>BOND
     1    19    20    1
     2    20    13    1
     3    13    14   ar
     4    14    15   ar
     5    15     6    1
     6     6     7    2
     7     6     8   am
     8     8     9    1
     9     9    10    1
    10    10    11    1
    11    11     5    1
    12     5     1    1
    13     1     2   am
    14     2     3    2
    15     2    25    1
    16    25    26    1
    17    26    27    1
    18    27    28    1
    19    28    29    1
    20    29    30    1
    21    30    31   ar
    22    31    32   ar
    23    32    33   ar
    24    33    34    1
    25    33    35   ar
    26    35    36   ar
    27    29    37    1
    28    37    38   ar
    29    38    39   ar
    30    39    40   ar
    31    40    41    1
    32    40    42   ar
    33    42    43   ar
    34    11    12    1
    35    15    16   ar
    36    16    17   ar
    37    17    21    1
    38    21    22    1
    39    17    18   ar
    40    18    23    1
    41    23    24    1
    42    18    13   ar
    43    12     8    1
    44    36    30   ar
    45    43    37   ar
    46     1     4    1
@<TRIPOS>MOLECULE
*****
 43 46 0 0 0
SMALL
GASTEIGER

@<TRIPOS>ATOM
      1 N         144.3364  138.8247  162.0374 N.am    1  UNL1       -0.3043
      2 C         144.7273  139.8993  163.0082 C.2     1  UNL1        0.2225
      3 O         144.8144  141.3258  162.5528 O.2     1  UNL1       -0.2751
      4 H         144.2792  137.8884  162.3363 H       1  UNL1        0.1494
      5 C         144.0325  139.1766  160.6113 C.3     1  UNL1        0.0911
      6 C         138.8706  140.2243  160.2397 C.2     1  UNL1        0.2492
      7 O         137.7247  139.8761  159.3366 O.2     1  UNL1       -0.2699
      8 N         140.2393  139.6783  159.9592 N.am    1  UNL1       -0.2760
      9 C         140.6126  138.7770  158.8198 C.3     1  UNL1        0.0938
     10 C         142.0790  138.4794  158.9253 C.3     1  UNL1        0.0249
     11 C         142.6120  139.1967  160.1300 C.3     1  UNL1        0.0412
     12 C         141.4750  139.9376  160.7690 C.3     1  UNL1        0.0954
     13 C         138.3183  141.4237  163.9822 C.ar    1  UNL1        0.1756
     14 C         138.5410  140.5296  162.7986 C.ar    1  UNL1        0.0448
     15 C         138.6479  141.1185  161.4233 C.ar    1  UNL1        0.0598
     16 C         138.5322  142.6017  161.2314 C.ar    1  UNL1        0.0448
     17 C         138.3095  143.4958  162.4150 C.ar    1  UNL1        0.1756
     18 C         138.2026  142.9069  163.7904 C.ar    1  UNL1        0.2061
     19 C         138.0513  139.3532  165.5286 C.3     1  UNL1        0.2526
     20 O         138.2114  140.8347  165.3576 O.3     1  UNL1       -0.4683
     21 O         138.1938  144.9791  162.2232 O.3     1  UNL1       -0.4683
     22 C         139.4202  145.7978  161.9486 C.3     1  UNL1        0.2526
     23 O         137.9799  143.8011  164.9740 O.3     1  UNL1       -0.4654
     24 C         139.1079  144.6331  165.5081 C.3     1  UNL1        0.2528
     25 C         145.0312  139.5474  164.4342 C.3     1  UNL1        0.0850
     26 C         144.0039  138.8396  165.2673 C.3     1  UNL1        0.0096
     27 C         142.6298  138.5966  164.7169 C.3     1  UNL1        0.0012
     28 C         141.5112  139.5388  165.0497 C.3     1  UNL1        0.0087
     29 C         141.7885  140.7825  165.8412 C.3     1  UNL1        0.0446
     30 C         142.3714  141.9876  165.1646 C.ar    1  UNL1       -0.0183
     31 C         141.7348  142.5298  163.9193 C.ar    1  UNL1       -0.0017
     32 C         142.3177  143.7350  163.2426 C.ar    1  UNL1        0.0293
     33 C         143.5372  144.3979  163.8112 C.ar    1  UNL1        0.1401
     34 F         144.1201  145.6031  163.1346 F       1  UNL1       -0.2042
     35 C         144.1738  143.8558  165.0566 C.ar    1  UNL1        0.0293
     36 C         143.5908  142.6506  165.7333 C.ar    1  UNL1       -0.0017
     37 C         141.4828  140.8210  167.3092 C.ar    1  UNL1       -0.0183
     38 C         140.6339  141.9233  167.8698 C.ar    1  UNL1       -0.0017
     39 C         140.3282  141.9618  169.3379 C.ar    1  UNL1        0.0293
     40 C         140.8715  140.8981  170.2453 C.ar    1  UNL1        0.1401
     41 F         140.5659  140.9366  171.7133 F       1  UNL1       -0.2042
     42 C         141.7205  139.7958  169.6846 C.ar    1  UNL1        0.0293
     43 C         142.0262  139.7573  168.2166 C.ar    1  UNL1       -0.0017
@<TRIPOS>BOND
     1    19    20    1
     2    20    13    1
     3    13    14   ar
     4    14    15   ar
     5    15     6    1
     6     6     7    2
     7     6     8   am
     8     8     9    1
     9     9    10    1
    10    10    11    1
    11    11     5    1
    12     5     1    1
    13     1     2   am
    14     2     3    2
    15     2    25    1
    16    25    26    1
    17    26    27    1
    18    27    28    1
    19    28    29    1
    20    29    30    1
    21    30    31   ar
    22    31    32   ar
    23    32    33   ar
    24    33    34    1
    25    33    35   ar
    26    35    36   ar
    27    29    37    1
    28    37    38   ar
    29    38    39   ar
    30    39    40   ar
    31    40    41    1
    32    40    42   ar
    33    42    43   ar
    34    11    12    1
    35    15    16   ar
    36    16    17   ar
    37    17    21    1
    38    21    22    1
    39    17    18   ar
    40    18    23    1
    41    23    24    1
    42    18    13   ar
    43    12     8    1
    44    36    30   ar
    45    43    37   ar
    46     1     4    1
@<TRIPOS>MOLECULE
*****
 43 46 0 0 0
SMALL
GASTEIGER

@<TRIPOS>ATOM
      1 N         144.0567  138.7139  162.0995 N.am    1  UNL1       -0.3043
      2 C         144.6526  139.7797  162.9707 C.2     1  UNL1        0.2225
      3 O         145.0909  141.0819  162.3691 O.2     1  UNL1       -0.2751
      4 H         143.7689  137.8592  162.4943 H       1  UNL1        0.1494
      5 C         143.8991  138.9504  160.6266 C.3     1  UNL1        0.0911
      6 C         138.8682  140.3617  159.8657 C.2     1  UNL1        0.2492
      7 O         137.7825  140.1194  158.8595 O.2     1  UNL1       -0.2699
      8 N         140.2165  139.7309  159.6808 N.am    1  UNL1       -0.2760
      9 C         140.6246  138.8393  158.5457 C.3     1  UNL1        0.0938
     10 C         142.0537  138.4383  158.7618 C.3     1  UNL1        0.0249
     11 C         142.5290  139.0822  160.0305 C.3     1  UNL1        0.0412
     12 C         141.3935  139.8811  160.5984 C.3     1  UNL1        0.0954
     13 C         138.4360  143.5993  162.1198 C.ar    1  UNL1        0.1756
     14 C         138.6986  142.7263  160.9287 C.ar    1  UNL1        0.0448
     15 C         138.6056  141.2347  161.0569 C.ar    1  UNL1        0.0598
     16 C         138.2500  140.6161  162.3763 C.ar    1  UNL1        0.0448
     17 C         137.9875  141.4891  163.5675 C.ar    1  UNL1        0.1756
     18 C         138.0805  142.9807  163.4392 C.ar    1  UNL1        0.2061
     19 C         139.8720  145.7554  161.9217 C.3     1  UNL1        0.2526
     20 O         138.5291  145.0909  161.9916 O.3     1  UNL1       -0.4683
     21 O         137.6319  140.8705  164.8870 O.3     1  UNL1       -0.4683
     22 C         138.4653  139.7528  165.4402 C.3     1  UNL1        0.2526
     23 O         137.8179  143.8537  164.6305 O.3     1  UNL1       -0.4654
     24 C         138.9585  144.5341  165.3276 C.3     1  UNL1        0.2528
     25 C         144.8101  139.5432  164.4435 C.3     1  UNL1        0.0850
     26 C         143.9067  138.5752  165.1485 C.3     1  UNL1        0.0096
     27 C         143.3142  138.9349  166.4788 C.3     1  UNL1        0.0012
     28 C         141.9484  139.5511  166.5495 C.3     1  UNL1        0.0087
     29 C         141.8026  141.0320  166.7383 C.3     1  UNL1        0.0446
     30 C         142.3778  141.9773  165.7257 C.ar    1  UNL1       -0.0183
     31 C         143.6921  142.6503  165.9896 C.ar    1  UNL1       -0.0017
     32 C         144.2674  143.5957  164.9769 C.ar    1  UNL1        0.0293
     33 C         143.5282  143.8681  163.7004 C.ar    1  UNL1        0.1401
     34 F         144.1035  144.8135  162.6878 F       1  UNL1       -0.2042
     35 C         142.2139  143.1951  163.4365 C.ar    1  UNL1        0.0293
     36 C         141.6386  142.2497  164.4492 C.ar    1  UNL1       -0.0017
     37 C         141.0816  141.5675  167.9397 C.ar    1  UNL1       -0.0183
     38 C         140.2719  140.6447  168.8015 C.ar    1  UNL1       -0.0017
     39 C         139.5509  141.1802  170.0030 C.ar    1  UNL1        0.0293
     40 C         139.6396  142.6385  170.3426 C.ar    1  UNL1        0.1401
     41 F         138.9187  143.1740  171.5440 F       1  UNL1       -0.2042
     42 C         140.4494  143.5614  169.4808 C.ar    1  UNL1        0.0293
     43 C         141.1704  143.0259  168.2794 C.ar    1  UNL1       -0.0017
@<TRIPOS>BOND
     1    19    20    1
     2    20    13    1
     3    13    14   ar
     4    14    15   ar
     5    15     6    1
     6     6     7    2
     7     6     8   am
     8     8     9    1
     9     9    10    1
    10    10    11    1
    11    11     5    1
    12     5     1    1
    13     1     2   am
    14     2     3    2
    15     2    25    1
    16    25    26    1
    17    26    27    1
    18    27    28    1
    19    28    29    1
    20    29    30    1
    21    30    31   ar
    22    31    32   ar
    23    32    33   ar
    24    33    34    1
    25    33    35   ar
    26    35    36   ar
    27    29    37    1
    28    37    38   ar
    29    38    39   ar
    30    39    40   ar
    31    40    41    1
    32    40    42   ar
    33    42    43   ar
    34    11    12    1
    35    15    16   ar
    36    16    17   ar
    37    17    21    1
    38    21    22    1
    39    17    18   ar
    40    18    23    1
    41    23    24    1
    42    18    13   ar
    43    12     8    1
    44    36    30   ar
    45    43    37   ar
    46     1     4    1
@<TRIPOS>MOLECULE
*****
 43 46 0 0 0
SMALL
GASTEIGER

@<TRIPOS>ATOM
      1 N         137.5843  140.6664  161.8047 N.am    1  UNL1       -0.3043
      2 C         137.7240  142.1258  162.1220 C.2     1  UNL1        0.2225
      3 O         137.9668  143.1131  161.0191 O.2     1  UNL1       -0.2751
      4 H         137.4250  140.0184  162.5285 H       1  UNL1        0.1494
      5 C         137.6876  140.1943  160.3847 C.3     1  UNL1        0.0911
      6 C         142.9108  139.8924  159.6726 C.2     1  UNL1        0.2492
      7 O         143.8673  139.3480  158.6534 O.2     1  UNL1       -0.2699
      8 N         141.4321  139.7520  159.4637 N.am    1  UNL1       -0.2760
      9 C         140.7657  139.0952  158.2913 C.3     1  UNL1        0.0938
     10 C         139.2819  139.1810  158.4935 C.3     1  UNL1        0.0249
     11 C         139.0312  139.8907  159.7910 C.3     1  UNL1        0.0412
     12 C         140.3601  140.2436  160.3906 C.3     1  UNL1        0.0954
     13 C         144.4437  140.4488  163.2907 C.ar    1  UNL1        0.1756
     14 C         143.9215  139.7640  162.0627 C.ar    1  UNL1        0.0448
     15 C         143.4331  140.5773  160.9007 C.ar    1  UNL1        0.0598
     16 C         143.4670  142.0754  160.9669 C.ar    1  UNL1        0.0448
     17 C         143.9892  142.7602  162.1950 C.ar    1  UNL1        0.1756
     18 C         144.4776  141.9469  163.3569 C.ar    1  UNL1        0.2061
     19 C         143.9521  138.9001  165.3180 C.3     1  UNL1        0.2526
     20 O         144.9320  139.6355  164.4527 O.3     1  UNL1       -0.4683
     21 O         144.0231  144.2584  162.2612 O.3     1  UNL1       -0.4683
     22 C         142.8575  145.0105  162.8318 C.3     1  UNL1        0.2526
     23 O         144.9998  142.6318  164.5851 O.3     1  UNL1       -0.4654
     24 C         144.0599  143.0040  165.6932 C.3     1  UNL1        0.2528
     25 C         137.6207  142.5979  163.5419 C.3     1  UNL1        0.0850
     26 C         138.0989  143.9705  163.9126 C.3     1  UNL1        0.0096
     27 C         138.8635  144.1799  165.1860 C.3     1  UNL1        0.0012
     28 C         140.2059  143.5362  165.3694 C.3     1  UNL1        0.0087
     29 C         140.3212  142.2429  166.1206 C.3     1  UNL1        0.0446
     30 C         139.9564  140.9515  165.4506 C.ar    1  UNL1       -0.0183
     31 C         140.7469  140.4692  164.2706 C.ar    1  UNL1       -0.0017
     32 C         140.3820  139.1777  163.6006 C.ar    1  UNL1        0.0293
     33 C         139.2267  138.3684  164.1107 C.ar    1  UNL1        0.1401
     34 F         138.8619  137.0769  163.4407 F       1  UNL1       -0.2042
     35 C         138.4361  138.8506  165.2907 C.ar    1  UNL1        0.0293
     36 C         138.8010  140.1422  165.9607 C.ar    1  UNL1       -0.0017
     37 C         140.8014  142.2412  167.5416 C.ar    1  UNL1       -0.0183
     38 C         140.2935  143.2717  168.5061 C.ar    1  UNL1       -0.0017
     39 C         140.7737  143.2700  169.9272 C.ar    1  UNL1        0.0293
     40 C         141.7618  142.2379  170.3838 C.ar    1  UNL1        0.1401
     41 F         142.2420  142.2362  171.8048 F       1  UNL1       -0.2042
     42 C         142.2697  141.2074  169.4192 C.ar    1  UNL1        0.0293
     43 C         141.7895  141.2091  167.9982 C.ar    1  UNL1       -0.0017
@<TRIPOS>BOND
     1    19    20    1
     2    20    13    1
     3    13    14   ar
     4    14    15   ar
     5    15     6    1
     6     6     7    2
     7     6     8   am
     8     8     9    1
     9     9    10    1
    10    10    11    1
    11    11     5    1
    12     5     1    1
    13     1     2   am
    14     2     3    2
    15     2    25    1
    16    25    26    1
    17    26    27    1
    18    27    28    1
    19    28    29    1
    20    29    30    1
    21    30    31   ar
    22    31    32   ar
    23    32    33   ar
    24    33    34    1
    25    33    35   ar
    26    35    36   ar
    27    29    37    1
    28    37    38   ar
    29    38    39   ar
    30    39    40   ar
    31    40    41    1
    32    40    42   ar
    33    42    43   ar
    34    11    12    1
    35    15    16   ar
    36    16    17   ar
    37    17    21    1
    38    21    22    1
    39    17    18   ar
    40    18    23    1
    41    23    24    1
    42    18    13   ar
    43    12     8    1
    44    36    30   ar
    45    43    37   ar
    46     1     4    1
@<TRIPOS>MOLECULE
*****
 43 46 0 0 0
SMALL
GASTEIGER

@<TRIPOS>ATOM
      1 N         137.7488  140.7120  161.5865 N.am    1  UNL1       -0.3043
      2 C         137.8506  142.1849  161.8512 C.2     1  UNL1        0.2225
      3 O         138.0767  143.1373  160.7147 O.2     1  UNL1       -0.2751
      4 H         137.6004  140.0869  162.3325 H       1  UNL1        0.1494
      5 C         137.8732  140.1915  160.1852 C.3     1  UNL1        0.0911
      6 C         143.1058  140.1669  159.4780 C.2     1  UNL1        0.2492
      7 O         144.0867  139.7363  158.4281 O.2     1  UNL1       -0.2699
      8 N         141.6349  139.9770  159.2531 N.am    1  UNL1       -0.2760
      9 C         140.9997  139.3745  158.0352 C.3     1  UNL1        0.0938
     10 C         139.5133  139.3814  158.2360 C.3     1  UNL1        0.0249
     11 C         139.2298  139.9883  159.5782 C.3     1  UNL1        0.0412
     12 C         140.5410  140.3564  160.2067 C.3     1  UNL1        0.0954
     13 C         144.5660  140.5361  163.1497 C.ar    1  UNL1        0.1756
     14 C         144.0762  139.9157  161.8749 C.ar    1  UNL1        0.0448
     15 C         143.5957  140.7874  160.7528 C.ar    1  UNL1        0.0598
     16 C         143.6051  142.2796  160.9053 C.ar    1  UNL1        0.0448
     17 C         144.0950  142.9000  162.1801 C.ar    1  UNL1        0.1756
     18 C         144.5755  142.0283  163.3023 C.ar    1  UNL1        0.2061
     19 C         144.0597  139.0512  165.2205 C.3     1  UNL1        0.2526
     20 O         145.0465  139.6644  164.2718 O.3     1  UNL1       -0.4683
     21 O         144.1044  144.3922  162.3327 O.3     1  UNL1       -0.4683
     22 C         143.0101  145.0747  163.0986 C.3     1  UNL1        0.2526
     23 O         145.0654  142.6488  164.5771 O.3     1  UNL1       -0.4654
     24 C         144.1123  142.8843  165.7112 C.3     1  UNL1        0.2528
     25 C         137.7262  142.7054  163.2524 C.3     1  UNL1        0.0850
     26 C         138.3972  143.9906  163.6374 C.3     1  UNL1        0.0096
     27 C         138.9015  144.1836  165.0369 C.3     1  UNL1        0.0012
     28 C         140.2491  143.6538  165.4282 C.3     1  UNL1        0.0087
     29 C         140.3608  142.3333  166.1310 C.3     1  UNL1        0.0446
     30 C         140.8060  142.2809  167.5624 C.ar    1  UNL1       -0.0183
     31 C         141.7578  141.2128  168.0131 C.ar    1  UNL1       -0.0017
     32 C         142.2031  141.1603  169.4446 C.ar    1  UNL1        0.0293
     33 C         141.6965  142.1760  170.4253 C.ar    1  UNL1        0.1401
     34 F         142.1417  142.1235  171.8567 F       1  UNL1       -0.2042
     35 C         140.7447  143.2441  169.9746 C.ar    1  UNL1        0.0293
     36 C         140.2994  143.2966  168.5431 C.ar    1  UNL1       -0.0017
     37 C         140.0273  141.0654  165.4023 C.ar    1  UNL1       -0.0183
     38 C         138.8505  140.2406  165.8323 C.ar    1  UNL1       -0.0017
     39 C         138.5170  138.9725  165.1036 C.ar    1  UNL1        0.0293
     40 C         139.3603  138.5293  163.9450 C.ar    1  UNL1        0.1401
     41 F         139.0268  137.2613  163.2163 F       1  UNL1       -0.2042
     42 C         140.5371  139.3542  163.5150 C.ar    1  UNL1        0.0293
     43 C         140.8706  140.6222  164.2437 C.ar    1  UNL1       -0.0017
@<TRIPOS>BOND
     1    19    20    1
     2    20    13    1
     3    13    14   ar
     4    14    15   ar
     5    15     6    1
     6     6     7    2
     7     6     8   am
     8     8     9    1
     9     9    10    1
    10    10    11    1
    11    11     5    1
    12     5     1    1
    13     1     2   am
    14     2     3    2
    15     2    25    1
    16    25    26    1
    17    26    27    1
    18    27    28    1
    19    28    29    1
    20    29    30    1
    21    30    31   ar
    22    31    32   ar
    23    32    33   ar
    24    33    34    1
    25    33    35   ar
    26    35    36   ar
    27    29    37    1
    28    37    38   ar
    29    38    39   ar
    30    39    40   ar
    31    40    41    1
    32    40    42   ar
    33    42    43   ar
    34    11    12    1
    35    15    16   ar
    36    16    17   ar
    37    17    21    1
    38    21    22    1
    39    17    18   ar
    40    18    23    1
    41    23    24    1
    42    18    13   ar
    43    12     8    1
    44    36    30   ar
    45    43    37   ar
    46     1     4    1
@<TRIPOS>MOLECULE
*****
 43 46 0 0 0
SMALL
GASTEIGER

@<TRIPOS>ATOM
      1 N         139.0049  137.5282  162.4088 N.am    1  UNL1       -0.3043
      2 C         138.7195  138.3630  163.6218 C.2     1  UNL1        0.2225
      3 O         138.1130  139.7263  163.4683 O.2     1  UNL1       -0.2751
      4 H         139.4029  136.6334  162.5095 H       1  UNL1        0.1494
      5 C         138.6837  138.0566  161.0421 C.3     1  UNL1        0.0911
      6 C         143.0876  140.4508  159.3825 C.2     1  UNL1        0.2492
      7 O         143.8198  140.6675  158.0914 O.2     1  UNL1       -0.2699
      8 N         141.8065  139.6706  159.3964 N.am    1  UNL1       -0.2760
      9 C         141.1391  139.0500  158.2050 C.3     1  UNL1        0.0938
     10 C         139.8881  138.3698  158.6765 C.3     1  UNL1        0.0249
     11 C         139.7823  138.5701  160.1593 C.3     1  UNL1        0.0412
     12 C         140.9679  139.3740  160.6042 C.3     1  UNL1        0.0954
     13 C         144.7561  140.6603  162.9772 C.ar    1  UNL1        0.1756
     14 C         144.2072  140.0968  161.7000 C.ar    1  UNL1        0.0448
     15 C         143.6365  141.0143  160.6597 C.ar    1  UNL1        0.0598
     16 C         143.6145  142.4953  160.8965 C.ar    1  UNL1        0.0448
     17 C         144.1634  143.0588  162.1737 C.ar    1  UNL1        0.1756
     18 C         144.7342  142.1412  163.2140 C.ar    1  UNL1        0.2061
     19 C         144.4350  139.1570  165.0717 C.3     1  UNL1        0.2526
     20 O         145.3269  139.7427  164.0176 O.3     1  UNL1       -0.4683
     21 O         144.1414  144.5398  162.4106 O.3     1  UNL1       -0.4683
     22 C         142.9132  145.1912  162.9737 C.3     1  UNL1        0.2526
     23 O         145.2830  142.7048  164.4913 O.3     1  UNL1       -0.4654
     24 C         144.3495  143.1304  165.5855 C.3     1  UNL1        0.2528
     25 C         139.0407  137.8346  164.9884 C.3     1  UNL1        0.0850
     26 C         138.1386  138.1487  166.1450 C.3     1  UNL1        0.0096
     27 C         138.2148  139.4897  166.8130 C.3     1  UNL1        0.0012
     28 C         139.4325  139.8653  167.6042 C.3     1  UNL1        0.0087
     29 C         140.2403  141.0669  167.2123 C.3     1  UNL1        0.0446
     30 C         141.0732  141.7775  168.2376 C.ar    1  UNL1       -0.0183
     31 C         140.4634  142.8570  169.0820 C.ar    1  UNL1       -0.0017
     32 C         141.2963  143.5677  170.1074 C.ar    1  UNL1        0.0293
     33 C         142.7389  143.1989  170.2883 C.ar    1  UNL1        0.1401
     34 F         143.5718  143.9096  171.3137 F       1  UNL1       -0.2042
     35 C         143.3488  142.1195  169.4439 C.ar    1  UNL1        0.0293
     36 C         142.5158  141.4088  168.4186 C.ar    1  UNL1       -0.0017
     37 C         140.2153  141.5579  165.7952 C.ar    1  UNL1       -0.0183
     38 C         141.1131  140.9328  164.7690 C.ar    1  UNL1       -0.0017
     39 C         141.0880  141.4237  163.3517 C.ar    1  UNL1        0.0293
     40 C         140.1652  142.5397  162.9608 C.ar    1  UNL1        0.1401
     41 F         140.1401  143.0307  161.5437 F       1  UNL1       -0.2042
     42 C         139.2673  143.1648  163.9871 C.ar    1  UNL1        0.0293
     43 C         139.2924  142.6739  165.4043 C.ar    1  UNL1       -0.0017
@<TRIPOS>BOND
     1    19    20    1
     2    20    13    1
     3    13    14   ar
     4    14    15   ar
     5    15     6    1
     6     6     7    2
     7     6     8   am
     8     8     9    1
     9     9    10    1
    10    10    11    1
    11    11     5    1
    12     5     1    1
    13     1     2   am
    14     2     3    2
    15     2    25    1
    16    25    26    1
    17    26    27    1
    18    27    28    1
    19    28    29    1
    20    29    30    1
    21    30    31   ar
    22    31    32   ar
    23    32    33   ar
    24    33    34    1
    25    33    35   ar
    26    35    36   ar
    27    29    37    1
    28    37    38   ar
    29    38    39   ar
    30    39    40   ar
    31    40    41    1
    32    40    42   ar
    33    42    43   ar
    34    11    12    1
    35    15    16   ar
    36    16    17   ar
    37    17    21    1
    38    21    22    1
    39    17    18   ar
    40    18    23    1
    41    23    24    1
    42    18    13   ar
    43    12     8    1
    44    36    30   ar
    45    43    37   ar
    46     1     4    1
@<TRIPOS>MOLECULE
*****
 43 46 0 0 0
SMALL
GASTEIGER

@<TRIPOS>ATOM
      1 N         137.4583  139.7345  160.9002 N.am    1  UNL1       -0.3043
      2 C         138.3417  138.5921  161.3056 C.2     1  UNL1        0.2225
      3 O         139.3739  138.0671  160.3521 O.2     1  UNL1       -0.2751
      4 H         136.7809  140.0791  161.5260 H       1  UNL1        0.1494
      5 C         137.6070  140.3521  159.5413 C.3     1  UNL1        0.0911
      6 C         141.8963  143.4151  159.8598 C.2     1  UNL1        0.2492
      7 O         142.3845  144.7126  159.2871 O.2     1  UNL1       -0.2699
      8 N         140.5447  142.8881  159.4782 N.am    1  UNL1       -0.2760
      9 C         139.5750  143.5444  158.5406 C.3     1  UNL1        0.0938
     10 C         138.3566  142.6743  158.4501 C.3     1  UNL1        0.0249
     11 C         138.5731  141.4802  159.3318 C.3     1  UNL1        0.0412
     12 C         139.9255  141.6124  159.9672 C.3     1  UNL1        0.0954
     13 C         144.0704  140.4849  161.4210 C.ar    1  UNL1        0.1756
     14 C         143.2070  141.2555  160.4667 C.ar    1  UNL1        0.0448
     15 C         142.7596  142.6444  160.8142 C.ar    1  UNL1        0.0598
     16 C         143.1755  143.2627  162.1160 C.ar    1  UNL1        0.0448
     17 C         144.0388  142.4920  163.0703 C.ar    1  UNL1        0.1756
     18 C         144.4862  141.1031  162.7228 C.ar    1  UNL1        0.2061
     19 C         143.6531  137.9206  161.4208 C.3     1  UNL1        0.2526
     20 O         144.5178  139.0960  161.0735 O.3     1  UNL1       -0.4683
     21 O         144.4548  143.1103  164.3722 O.3     1  UNL1       -0.4683
     22 C         143.6737  142.8261  165.6208 C.3     1  UNL1        0.2526
     23 O         145.3496  140.3325  163.6772 O.3     1  UNL1       -0.4654
     24 C         144.7250  139.3723  164.6457 C.3     1  UNL1        0.2528
     25 C         138.1930  137.9746  162.6644 C.3     1  UNL1        0.0850
     26 C         139.4101  137.5588  163.4365 C.3     1  UNL1        0.0096
     27 C         139.3945  137.5921  164.9361 C.3     1  UNL1        0.0012
     28 C         138.6183  138.6556  165.6546 C.3     1  UNL1        0.0087
     29 C         139.3001  139.9209  166.0839 C.3     1  UNL1        0.0446
     30 C         140.2550  139.9030  167.2405 C.ar    1  UNL1       -0.0183
     31 C         139.7469  140.1146  168.6359 C.ar    1  UNL1       -0.0017
     32 C         140.7019  140.0967  169.7926 C.ar    1  UNL1        0.0293
     33 C         142.1649  139.8673  169.5539 C.ar    1  UNL1        0.1401
     34 F         143.1197  139.8494  170.7105 F       1  UNL1       -0.2042
     35 C         142.6730  139.6557  168.1585 C.ar    1  UNL1        0.0293
     36 C         141.7180  139.6736  167.0018 C.ar    1  UNL1       -0.0017
     37 C         139.0270  141.2040  165.3566 C.ar    1  UNL1       -0.0183
     38 C         137.9566  141.2580  164.3071 C.ar    1  UNL1       -0.0017
     39 C         137.6834  142.5411  163.5798 C.ar    1  UNL1        0.0293
     40 C         138.4806  143.7703  163.9019 C.ar    1  UNL1        0.1401
     41 F         138.2074  145.0534  163.1746 F       1  UNL1       -0.2042
     42 C         139.5510  143.7162  164.9515 C.ar    1  UNL1        0.0293
     43 C         139.8242  142.4331  165.6788 C.ar    1  UNL1       -0.0017
@<TRIPOS>BOND
     1    19    20    1
     2    20    13    1
     3    13    14   ar
     4    14    15   ar
     5    15     6    1
     6     6     7    2
     7     6     8   am
     8     8     9    1
     9     9    10    1
    10    10    11    1
    11    11     5    1
    12     5     1    1
    13     1     2   am
    14     2     3    2
    15     2    25    1
    16    25    26    1
    17    26    27    1
    18    27    28    1
    19    28    29    1
    20    29    30    1
    21    30    31   ar
    22    31    32   ar
    23    32    33   ar
    24    33    34    1
    25    33    35   ar
    26    35    36   ar
    27    29    37    1
    28    37    38   ar
    29    38    39   ar
    30    39    40   ar
    31    40    41    1
    32    40    42   ar
    33    42    43   ar
    34    11    12    1
    35    15    16   ar
    36    16    17   ar
    37    17    21    1
    38    21    22    1
    39    17    18   ar
    40    18    23    1
    41    23    24    1
    42    18    13   ar
    43    12     8    1
    44    36    30   ar
    45    43    37   ar
    46     1     4    1
@<TRIPOS>MOLECULE
*****
 43 46 0 0 0
SMALL
GASTEIGER

@<TRIPOS>ATOM
      1 N         138.5714  142.7727  160.0655 N.am    1  UNL1       -0.3043
      2 C         138.0909  142.7879  161.4864 C.2     1  UNL1        0.2225
      3 O         137.3258  141.6187  162.0318 O.2     1  UNL1       -0.2751
      4 H         139.0736  143.5401  159.7075 H       1  UNL1        0.1494
      5 C         138.2867  141.5884  159.1901 C.3     1  UNL1        0.0911
      6 C         142.2175  138.1722  160.0619 C.2     1  UNL1        0.2492
      7 O         143.0281  137.1822  159.2791 O.2     1  UNL1       -0.2699
      8 N         141.1466  138.9710  159.3798 N.am    1  UNL1       -0.2760
      9 C         140.7742  138.8888  157.9291 C.3     1  UNL1        0.0938
     10 C         139.6576  139.8592  157.6814 C.3     1  UNL1        0.0249
     11 C         139.3398  140.5412  158.9791 C.3     1  UNL1        0.0412
     12 C         140.2601  139.9923  160.0287 C.3     1  UNL1        0.0954
     13 C         144.0058  139.2134  163.4483 C.ar    1  UNL1        0.1756
     14 C         143.7456  139.0222  161.9835 C.ar    1  UNL1        0.0448
     15 C         142.4777  138.3635  161.5267 C.ar    1  UNL1        0.0598
     16 C         141.4701  137.8960  162.5348 C.ar    1  UNL1        0.0448
     17 C         141.7304  138.0873  163.9996 C.ar    1  UNL1        0.1756
     18 C         142.9982  138.7460  164.4563 C.ar    1  UNL1        0.2061
     19 C         145.3732  141.3685  163.9339 C.3     1  UNL1        0.2526
     20 O         145.2737  139.8721  163.9050 O.3     1  UNL1       -0.4683
     21 O         140.7227  137.6199  165.0077 O.3     1  UNL1       -0.4683
     22 C         139.2951  138.0682  164.9046 C.3     1  UNL1        0.2526
     23 O         143.2585  138.9373  165.9212 O.3     1  UNL1       -0.4654
     24 C         143.8820  137.8332  166.7226 C.3     1  UNL1        0.2528
     25 C         138.3756  143.9721  162.3617 C.3     1  UNL1        0.0850
     26 C         137.9830  143.9465  163.8093 C.3     1  UNL1        0.0096
     27 C         138.7970  144.6979  164.8206 C.3     1  UNL1        0.0012
     28 C         139.4079  143.9708  165.9816 C.3     1  UNL1        0.0087
     29 C         140.5774  143.0573  165.7632 C.3     1  UNL1        0.0446
     30 C         141.3768  143.1520  164.4975 C.ar    1  UNL1       -0.0183
     31 C         142.3063  144.3094  164.2824 C.ar    1  UNL1       -0.0017
     32 C         143.1057  144.4041  163.0166 C.ar    1  UNL1        0.0293
     33 C         142.9756  143.3413  161.9661 C.ar    1  UNL1        0.1401
     34 F         143.7750  143.4361  160.7004 F       1  UNL1       -0.2042
     35 C         142.0460  142.1839  162.1812 C.ar    1  UNL1        0.0293
     36 C         141.2466  142.0892  163.4470 C.ar    1  UNL1       -0.0017
     37 C         140.9476  142.0493  166.8104 C.ar    1  UNL1       -0.0183
     38 C         142.2884  142.1203  167.4791 C.ar    1  UNL1       -0.0017
     39 C         142.6586  141.1122  168.5264 C.ar    1  UNL1        0.0293
     40 C         141.6880  140.0331  168.9050 C.ar    1  UNL1        0.1401
     41 F         142.0581  139.0250  169.9523 F       1  UNL1       -0.2042
     42 C         140.3471  139.9620  168.2363 C.ar    1  UNL1        0.0293
     43 C         139.9769  140.9701  167.1890 C.ar    1  UNL1       -0.0017
@<TRIPOS>BOND
     1    19    20    1
     2    20    13    1
     3    13    14   ar
     4    14    15   ar
     5    15     6    1
     6     6     7    2
     7     6     8   am
     8     8     9    1
     9     9    10    1
    10    10    11    1
    11    11     5    1
    12     5     1    1
    13     1     2   am
    14     2     3    2
    15     2    25    1
    16    25    26    1
    17    26    27    1
    18    27    28    1
    19    28    29    1
    20    29    30    1
    21    30    31   ar
    22    31    32   ar
    23    32    33   ar
    24    33    34    1
    25    33    35   ar
    26    35    36   ar
    27    29    37    1
    28    37    38   ar
    29    38    39   ar
    30    39    40   ar
    31    40    41    1
    32    40    42   ar
    33    42    43   ar
    34    11    12    1
    35    15    16   ar
    36    16    17   ar
    37    17    21    1
    38    21    22    1
    39    17    18   ar
    40    18    23    1
    41    23    24    1
    42    18    13   ar
    43    12     8    1
    44    36    30   ar
    45    43    37   ar
    46     1     4    1
