@<TRIPOS>MOLECULE
*****
 35 39 0 0 0
SMALL
GASTEIGER

@<TRIPOS>ATOM
      1 C         142.4669  144.4708  161.6419 C.3     1  UNL1        0.0730
      2 N         143.4053  143.4096  162.1354 N.3     1  UNL1       -0.2726
      3 C         144.6425  142.9316  161.4348 C.3     1  UNL1        0.0721
      4 C         145.2730  141.8668  162.2825 C.3     1  UNL1        0.0190
      5 C         144.4255  141.6867  163.5070 C.3     1  UNL1        0.0201
      6 C         145.2701  140.6126  164.1257 C.3     1  UNL1        0.0061
      7 C         144.0329  141.0906  164.8263 C.3     1  UNL1        0.0237
      8 C         143.2712  142.6403  163.4160 C.3     1  UNL1        0.0724
      9 C         143.0919  141.0225  165.9924 C.ar    1  UNL1       -0.0225
     10 C         142.1876  139.8373  166.1582 C.ar    1  UNL1       -0.0043
     11 C         141.2466  139.7691  167.3243 C.ar    1  UNL1        0.0035
     12 C         141.2100  140.8862  168.3247 C.ar    1  UNL1        0.0714
     13 C         142.1143  142.0714  168.1589 C.ar    1  UNL1        0.0035
     14 C         143.0553  142.1396  166.9928 C.ar    1  UNL1       -0.0043
     15 C         140.2690  140.8181  169.4908 C.3     1  UNL1        0.4186
     16 F         139.3280  140.7500  170.6571 F       1  UNL1       -0.1659
     17 F         140.7366  139.4239  169.7867 F       1  UNL1       -0.1659
     18 F         139.8014  142.2123  169.1950 F       1  UNL1       -0.1659
     19 C         141.5348  145.1520  162.5995 C.3     1  UNL1        0.0294
     20 C         140.1849  145.6113  162.1338 C.3     1  UNL1        0.0666
     21 S         138.9499  145.1682  162.8607 S.3     1  UNL1       -0.0756
     22 C         138.3332  141.3754  163.4089 C.ar    1  UNL1        0.1713
     23 N         137.4987  141.6315  162.1890 N.ar    1  UNL1       -0.1281
     24 N         137.6282  143.0834  161.8352 N.ar    1  UNL1       -0.1221
     25 C         138.5427  143.7247  162.8364 C.ar    1  UNL1        0.1932
     26 N         138.9784  142.6692  163.8090 N.ar    1  UNL1       -0.2883
     27 C         139.8979  142.8718  164.9767 C.3     1  UNL1        0.1340
     28 C         139.1594  138.9123  163.4015 C.ar    1  UNL1        0.2279
     29 N         139.3204  137.5940  164.0988 N.ar    1  UNL1       -0.2101
     30 C         138.8163  137.4207  165.5008 C.ar    1  UNL1        0.1021
     31 C         138.1511  138.5656  166.2057 C.ar    1  UNL1        0.0210
     32 C         137.9901  139.8839  165.5083 C.ar    1  UNL1        0.0093
     33 C         138.4942  140.0572  164.1063 C.ar    1  UNL1        0.0891
     34 C         139.1535  138.1971  160.9038 C.3     1  UNL1        0.2542
     35 O         139.6635  139.0856  161.9994 O.3     1  UNL1       -0.4561
@<TRIPOS>BOND
     1    34    35    1
     2    35    28    1
     3    28    29   ar
     4    29    30   ar
     5    30    31   ar
     6    31    32   ar
     7    32    33   ar
     8    33    22    1
     9    22    23   ar
    10    23    24   ar
    11    24    25   ar
    12    25    21    1
    13    21    20    1
    14    20    19    1
    15    19     1    1
    16     1     2    1
    17     2     3    1
    18     3     4    1
    19     5     4    1
    20     5     6    1
    21     6     7    1
    22     7     9    1
    23     9    10   ar
    24    10    11   ar
    25    11    12   ar
    26    12    15    1
    27    15    16    1
    28    15    17    1
    29    15    18    1
    30    12    13   ar
    31    13    14   ar
    32     5     8    1
    33    25    26   ar
    34    26    27    1
    35    33    28   ar
    36    26    22   ar
    37     8     2    1
    38     7     5    1
    39    14     9   ar
@<TRIPOS>MOLECULE
*****
 35 39 0 0 0
SMALL
GASTEIGER

@<TRIPOS>ATOM
      1 C         137.3211  141.6552  162.9053 C.3     1  UNL1        0.0730
      2 N         138.0820  140.4217  163.2923 N.3     1  UNL1       -0.2726
      3 C         138.0143  139.0914  162.6027 C.3     1  UNL1        0.0721
      4 C         138.9346  138.1496  163.3211 C.3     1  UNL1        0.0190
      5 C         139.5710  138.8979  164.4547 C.3     1  UNL1        0.0201
      6 C         140.3942  137.7495  164.9581 C.3     1  UNL1        0.0061
      7 C         140.4619  139.0798  165.6477 C.3     1  UNL1        0.0237
      8 C         139.0441  140.3022  164.4369 C.3     1  UNL1        0.0724
      9 C         141.0153  139.9530  166.7346 C.ar    1  UNL1       -0.0225
     10 C         140.1446  140.3596  167.8863 C.ar    1  UNL1       -0.0043
     11 C         140.6980  141.2328  168.9732 C.ar    1  UNL1        0.0035
     12 C         142.1221  141.6992  168.9084 C.ar    1  UNL1        0.0714
     13 C         142.9929  141.2925  167.7567 C.ar    1  UNL1        0.0035
     14 C         142.4395  140.4194  166.6698 C.ar    1  UNL1       -0.0043
     15 C         142.6755  142.5723  169.9953 C.3     1  UNL1        0.4186
     16 F         143.2290  143.4455  171.0822 F       1  UNL1       -0.1659
     17 F         141.2847  142.9989  170.3608 F       1  UNL1       -0.1659
     18 F         144.0663  142.1458  169.6298 F       1  UNL1       -0.1659
     19 C         137.4564  142.9067  163.7210 C.3     1  UNL1        0.0294
     20 C         137.6070  144.2341  163.0387 C.3     1  UNL1        0.0666
     21 S         138.9714  144.7400  162.6751 S.3     1  UNL1       -0.0756
     22 C         141.8925  142.1917  162.4778 C.ar    1  UNL1        0.1713
     23 N         141.5666  142.3722  161.0247 N.ar    1  UNL1       -0.1281
     24 N         140.4327  143.3488  160.9218 N.ar    1  UNL1       -0.1221
     25 C         140.0578  143.7718  162.3112 C.ar    1  UNL1        0.1932
     26 N         140.9599  143.0567  163.2729 N.ar    1  UNL1       -0.2883
     27 C         140.9341  143.1842  164.7672 C.3     1  UNL1        0.1340
     28 C         144.1999  141.9032  163.6364 C.ar    1  UNL1        0.2279
     29 N         145.2704  141.0139  164.1961 N.ar    1  UNL1       -0.2101
     30 C         145.1038  139.5237  164.1567 C.ar    1  UNL1        0.1021
     31 C         143.8669  138.9227  163.5576 C.ar    1  UNL1        0.0210
     32 C         142.7964  139.8121  162.9980 C.ar    1  UNL1        0.0093
     33 C         142.9630  141.3023  163.0374 C.ar    1  UNL1        0.0891
     34 C         144.4007  144.1096  164.9933 C.3     1  UNL1        0.2542
     35 O         144.3664  143.3934  163.6758 O.3     1  UNL1       -0.4561
@<TRIPOS>BOND
     1    34    35    1
     2    35    28    1
     3    28    29   ar
     4    29    30   ar
     5    30    31   ar
     6    31    32   ar
     7    32    33   ar
     8    33    22    1
     9    22    23   ar
    10    23    24   ar
    11    24    25   ar
    12    25    21    1
    13    21    20    1
    14    20    19    1
    15    19     1    1
    16     1     2    1
    17     2     3    1
    18     3     4    1
    19     5     4    1
    20     5     6    1
    21     6     7    1
    22     7     9    1
    23     9    10   ar
    24    10    11   ar
    25    11    12   ar
    26    12    15    1
    27    15    16    1
    28    15    17    1
    29    15    18    1
    30    12    13   ar
    31    13    14   ar
    32     5     8    1
    33    25    26   ar
    34    26    27    1
    35    33    28   ar
    36    26    22   ar
    37     8     2    1
    38     7     5    1
    39    14     9   ar
@<TRIPOS>MOLECULE
*****
 35 39 0 0 0
SMALL
GASTEIGER

@<TRIPOS>ATOM
      1 C         137.7358  142.9068  162.3964 C.3     1  UNL1        0.0730
      2 N         137.9463  141.4318  162.5696 N.3     1  UNL1       -0.2726
      3 C         137.5810  140.3667  161.5786 C.3     1  UNL1        0.0721
      4 C         137.9679  139.0396  162.1608 C.3     1  UNL1        0.0190
      5 C         138.5723  139.2845  163.5116 C.3     1  UNL1        0.0201
      6 C         138.8448  137.8431  163.8251 C.3     1  UNL1        0.0061
      7 C         139.2101  138.9082  164.8161 C.3     1  UNL1        0.0237
      8 C         138.5590  140.7630  163.7643 C.3     1  UNL1        0.0724
      9 C         139.7892  139.3060  166.1414 C.ar    1  UNL1       -0.0225
     10 C         138.8815  139.5973  167.2995 C.ar    1  UNL1       -0.0043
     11 C         139.4606  139.9950  168.6248 C.ar    1  UNL1        0.0035
     12 C         140.9474  140.1014  168.7920 C.ar    1  UNL1        0.0714
     13 C         141.8552  139.8101  167.6339 C.ar    1  UNL1        0.0035
     14 C         141.2761  139.4124  166.3086 C.ar    1  UNL1       -0.0043
     15 C         141.5266  140.4992  170.1173 C.3     1  UNL1        0.4186
     16 F         142.1057  140.8970  171.4427 F       1  UNL1       -0.1659
     17 F         142.7596  139.6990  169.8186 F       1  UNL1       -0.1659
     18 F         140.2935  141.2994  170.4159 F       1  UNL1       -0.1659
     19 C         138.1815  143.8588  163.4665 C.3     1  UNL1        0.0294
     20 C         138.9304  145.1050  163.0974 C.3     1  UNL1        0.0666
     21 S         140.4246  145.0721  162.9699 S.3     1  UNL1       -0.0756
     22 C         142.2198  141.6307  162.9697 C.ar    1  UNL1        0.1713
     23 N         142.4310  142.0678  164.3890 N.ar    1  UNL1       -0.1281
     24 N         141.7843  143.4102  164.5618 N.ar    1  UNL1       -0.1221
     25 C         141.1733  143.8027  163.2493 C.ar    1  UNL1        0.1932
     26 N         141.4424  142.7030  162.2654 N.ar    1  UNL1       -0.2883
     27 C         141.0101  142.6795  160.8292 C.3     1  UNL1        0.1340
     28 C         144.1384  140.2011  161.9574 C.ar    1  UNL1        0.2279
     29 N         144.6200  138.9173  161.3493 N.ar    1  UNL1       -0.2101
     30 C         143.6645  137.7791  161.1454 C.ar    1  UNL1        0.1021
     31 C         142.2273  137.9248  161.5497 C.ar    1  UNL1        0.0210
     32 C         141.7457  139.2087  162.1578 C.ar    1  UNL1        0.0093
     33 C         142.7013  140.3468  162.3616 C.ar    1  UNL1        0.0891
     34 C         145.8109  141.4913  163.4700 C.3     1  UNL1        0.2542
     35 O         145.0940  141.3392  162.1613 O.3     1  UNL1       -0.4561
@<TRIPOS>BOND
     1    34    35    1
     2    35    28    1
     3    28    29   ar
     4    29    30   ar
     5    30    31   ar
     6    31    32   ar
     7    32    33   ar
     8    33    22    1
     9    22    23   ar
    10    23    24   ar
    11    24    25   ar
    12    25    21    1
    13    21    20    1
    14    20    19    1
    15    19     1    1
    16     1     2    1
    17     2     3    1
    18     3     4    1
    19     5     4    1
    20     5     6    1
    21     6     7    1
    22     7     9    1
    23     9    10   ar
    24    10    11   ar
    25    11    12   ar
    26    12    15    1
    27    15    16    1
    28    15    17    1
    29    15    18    1
    30    12    13   ar
    31    13    14   ar
    32     5     8    1
    33    25    26   ar
    34    26    27    1
    35    33    28   ar
    36    26    22   ar
    37     8     2    1
    38     7     5    1
    39    14     9   ar
@<TRIPOS>MOLECULE
*****
 35 39 0 0 0
SMALL
GASTEIGER

@<TRIPOS>ATOM
      1 C         142.4279  142.0258  160.1506 C.3     1  UNL1        0.0730
      2 N         141.7788  142.9415  161.1457 N.3     1  UNL1       -0.2726
      3 C         141.8417  144.4401  161.1367 C.3     1  UNL1        0.0721
      4 C         141.0546  144.9441  162.3099 C.3     1  UNL1        0.0190
      5 C         140.5052  143.7569  163.0440 C.3     1  UNL1        0.0201
      6 C         139.8022  144.5434  164.1103 C.3     1  UNL1        0.0061
      7 C         139.7393  143.0448  164.1193 C.3     1  UNL1        0.0237
      8 C         140.9528  142.5192  162.3244 C.3     1  UNL1        0.0724
      9 C         139.2608  141.7684  164.7453 C.ar    1  UNL1       -0.0225
     10 C         139.5899  141.4659  166.1772 C.ar    1  UNL1       -0.0043
     11 C         139.1114  140.1895  166.8032 C.ar    1  UNL1        0.0035
     12 C         138.3038  139.2157  165.9973 C.ar    1  UNL1        0.0714
     13 C         137.9747  139.5182  164.5654 C.ar    1  UNL1        0.0035
     14 C         138.4532  140.7946  163.9394 C.ar    1  UNL1       -0.0043
     15 C         137.8254  137.9393  166.6233 C.3     1  UNL1        0.4186
     16 F         137.3469  136.6628  167.2493 F       1  UNL1       -0.1659
     17 F         137.3169  138.7097  167.8056 F       1  UNL1       -0.1659
     18 F         138.3338  137.1688  165.4410 F       1  UNL1       -0.1659
     19 C         143.7620  141.4117  160.4555 C.3     1  UNL1        0.0294
     20 C         144.0228  139.9751  160.1112 C.3     1  UNL1        0.0666
     21 S         144.0817  138.9424  161.1975 S.3     1  UNL1       -0.0756
     22 C         142.7135  139.7490  164.7391 C.ar    1  UNL1        0.1713
     23 N         141.5020  139.1478  164.0903 N.ar    1  UNL1       -0.1281
     24 N         141.8671  138.7725  162.6846 N.ar    1  UNL1       -0.1221
     25 C         143.3042  139.1417  162.4647 C.ar    1  UNL1        0.1932
     26 N         143.8274  139.7452  163.7344 N.ar    1  UNL1       -0.2883
     27 C         145.2198  140.2554  163.9598 C.3     1  UNL1        0.1340
     28 C         142.9608  141.7330  166.3981 C.ar    1  UNL1        0.2279
     29 N         143.0439  142.2477  167.8047 N.ar    1  UNL1       -0.2101
     30 C         142.9627  141.2928  168.9586 C.ar    1  UNL1        0.1021
     31 C         142.7984  139.8233  168.7062 C.ar    1  UNL1        0.0210
     32 C         142.7154  139.3087  167.2996 C.ar    1  UNL1        0.0093
     33 C         142.7966  140.2636  166.1457 C.ar    1  UNL1        0.0891
     34 C         144.2476  143.5651  165.0800 C.3     1  UNL1        0.2542
     35 O         143.0420  142.6878  165.2442 O.3     1  UNL1       -0.4561
@<TRIPOS>BOND
     1    34    35    1
     2    35    28    1
     3    28    29   ar
     4    29    30   ar
     5    30    31   ar
     6    31    32   ar
     7    32    33   ar
     8    33    22    1
     9    22    23   ar
    10    23    24   ar
    11    24    25   ar
    12    25    21    1
    13    21    20    1
    14    20    19    1
    15    19     1    1
    16     1     2    1
    17     2     3    1
    18     3     4    1
    19     5     4    1
    20     5     6    1
    21     6     7    1
    22     7     9    1
    23     9    10   ar
    24    10    11   ar
    25    11    12   ar
    26    12    15    1
    27    15    16    1
    28    15    17    1
    29    15    18    1
    30    12    13   ar
    31    13    14   ar
    32     5     8    1
    33    25    26   ar
    34    26    27    1
    35    33    28   ar
    36    26    22   ar
    37     8     2    1
    38     7     5    1
    39    14     9   ar
@<TRIPOS>MOLECULE
*****
 35 39 0 0 0
SMALL
GASTEIGER

@<TRIPOS>ATOM
      1 C         140.3846  137.6473  162.1675 C.3     1  UNL1        0.0730
      2 N         141.7492  138.1503  162.5349 N.3     1  UNL1       -0.2726
      3 C         142.9906  138.0195  161.7031 C.3     1  UNL1        0.0721
      4 C         144.1205  138.6607  162.4528 C.3     1  UNL1        0.0190
      5 C         143.5776  139.1878  163.7479 C.3     1  UNL1        0.0201
      6 C         144.8779  139.7430  164.2487 C.3     1  UNL1        0.0061
      7 C         143.6365  139.8738  165.0805 C.3     1  UNL1        0.0237
      8 C         142.1120  138.8723  163.7987 C.3     1  UNL1        0.0724
      9 C         142.9539  140.3454  166.3301 C.ar    1  UNL1       -0.0225
     10 C         142.5014  141.7709  166.4453 C.ar    1  UNL1       -0.0043
     11 C         141.8187  142.2425  167.6949 C.ar    1  UNL1        0.0035
     12 C         141.5886  141.2886  168.8294 C.ar    1  UNL1        0.0714
     13 C         142.0411  139.8632  168.7143 C.ar    1  UNL1        0.0035
     14 C         142.7238  139.3915  167.4646 C.ar    1  UNL1       -0.0043
     15 C         140.9060  141.7602  170.0790 C.3     1  UNL1        0.4186
     16 F         140.2233  142.2319  171.3287 F       1  UNL1       -0.1659
     17 F         139.5712  141.4680  169.4601 F       1  UNL1       -0.1659
     18 F         142.2407  142.0525  170.6978 F       1  UNL1       -0.1659
     19 C         139.1741  138.1757  162.8783 C.3     1  UNL1        0.0294
     20 C         137.9686  138.6000  162.0929 C.3     1  UNL1        0.0666
     21 S         137.7557  140.0493  161.7702 S.3     1  UNL1       -0.0756
     22 C         140.7949  142.4535  161.9908 C.ar    1  UNL1        0.1713
     23 N         140.7054  142.2344  160.5095 N.ar    1  UNL1       -0.1281
     24 N         139.5561  141.3072  160.2466 N.ar    1  UNL1       -0.1221
     25 C         138.9352  140.9531  161.5654 C.ar    1  UNL1        0.1932
     26 N         139.7007  141.6616  162.6433 N.ar    1  UNL1       -0.2883
     27 C         139.4213  141.5906  164.1154 C.3     1  UNL1        0.1340
     28 C         141.4119  144.6768  163.1849 C.ar    1  UNL1        0.2279
     29 N         142.4186  145.5369  163.8898 N.ar    1  UNL1       -0.2101
     30 C         143.8151  145.0335  164.1054 C.ar    1  UNL1        0.1021
     31 C         144.2049  143.6701  163.6162 C.ar    1  UNL1        0.0210
     32 C         143.1981  142.8101  162.9113 C.ar    1  UNL1        0.0093
     33 C         141.8017  143.3135  162.6957 C.ar    1  UNL1        0.0891
     34 C         139.7055  146.0484  161.7861 C.3     1  UNL1        0.2542
     35 O         140.0155  145.1802  162.9693 O.3     1  UNL1       -0.4561
@<TRIPOS>BOND
     1    34    35    1
     2    35    28    1
     3    28    29   ar
     4    29    30   ar
     5    30    31   ar
     6    31    32   ar
     7    32    33   ar
     8    33    22    1
     9    22    23   ar
    10    23    24   ar
    11    24    25   ar
    12    25    21    1
    13    21    20    1
    14    20    19    1
    15    19     1    1
    16     1     2    1
    17     2     3    1
    18     3     4    1
    19     5     4    1
    20     5     6    1
    21     6     7    1
    22     7     9    1
    23     9    10   ar
    24    10    11   ar
    25    11    12   ar
    26    12    15    1
    27    15    16    1
    28    15    17    1
    29    15    18    1
    30    12    13   ar
    31    13    14   ar
    32     5     8    1
    33    25    26   ar
    34    26    27    1
    35    33    28   ar
    36    26    22   ar
    37     8     2    1
    38     7     5    1
    39    14     9   ar
@<TRIPOS>MOLECULE
*****
 35 39 0 0 0
SMALL
GASTEIGER

@<TRIPOS>ATOM
      1 C         143.7037  139.5986  161.7707 C.3     1  UNL1        0.0730
      2 N         144.1406  140.7194  162.6668 N.3     1  UNL1       -0.2726
      3 C         145.2546  141.6854  162.3913 C.3     1  UNL1        0.0721
      4 C         145.3427  142.6340  163.5499 C.3     1  UNL1        0.0190
      5 C         144.2831  142.2542  164.5415 C.3     1  UNL1        0.0201
      6 C         144.6069  143.3292  165.5362 C.3     1  UNL1        0.0061
      7 C         143.4929  142.3632  165.8118 C.3     1  UNL1        0.0237
      8 C         143.5402  141.0710  163.9957 C.3     1  UNL1        0.0724
      9 C         142.3935  141.8684  166.7042 C.ar    1  UNL1       -0.0225
     10 C         141.1606  142.6985  166.9062 C.ar    1  UNL1       -0.0043
     11 C         140.0612  142.2037  167.7987 C.ar    1  UNL1        0.0035
     12 C         140.1948  140.8788  168.4891 C.ar    1  UNL1        0.0714
     13 C         141.4277  140.0487  168.2871 C.ar    1  UNL1        0.0035
     14 C         142.5271  140.5435  167.3947 C.ar    1  UNL1       -0.0043
     15 C         139.0954  140.3840  169.3816 C.3     1  UNL1        0.4186
     16 F         137.9959  139.8892  170.2741 F       1  UNL1       -0.1659
     17 F         139.5550  141.3152  170.4640 F       1  UNL1       -0.1659
     18 F         138.6358  139.4529  168.2991 F       1  UNL1       -0.1659
     19 C         143.1327  138.3442  162.3627 C.3     1  UNL1        0.0294
     20 C         142.1085  137.5547  161.6025 C.3     1  UNL1        0.0666
     21 S         140.6533  137.8956  161.7293 S.3     1  UNL1       -0.0756
     22 C         139.5770  141.5369  162.5345 C.ar    1  UNL1        0.1713
     23 N         139.5217  141.5430  161.0355 N.ar    1  UNL1       -0.1281
     24 N         139.9181  140.1797  160.5514 N.ar    1  UNL1       -0.1221
     25 C         140.2185  139.3310  161.7512 C.ar    1  UNL1        0.1932
     26 N         140.0076  140.1698  162.9768 N.ar    1  UNL1       -0.2883
     27 C         140.1946  139.7203  164.3957 C.3     1  UNL1        0.1340
     28 C         140.2509  143.8051  163.6072 C.ar    1  UNL1        0.2279
     29 N         139.9317  144.9629  164.5060 N.ar    1  UNL1       -0.2101
     30 C         138.6193  145.0100  165.2308 C.ar    1  UNL1        0.1021
     31 C         137.6260  143.8994  165.0569 C.ar    1  UNL1        0.0210
     32 C         137.9453  142.7417  164.1581 C.ar    1  UNL1        0.0093
     33 C         139.2577  142.6946  163.4333 C.ar    1  UNL1        0.0891
     34 C         142.4806  144.9444  162.9142 C.3     1  UNL1        0.2542
     35 O         141.5633  143.7580  162.8824 O.3     1  UNL1       -0.4561
@<TRIPOS>BOND
     1    34    35    1
     2    35    28    1
     3    28    29   ar
     4    29    30   ar
     5    30    31   ar
     6    31    32   ar
     7    32    33   ar
     8    33    22    1
     9    22    23   ar
    10    23    24   ar
    11    24    25   ar
    12    25    21    1
    13    21    20    1
    14    20    19    1
    15    19     1    1
    16     1     2    1
    17     2     3    1
    18     3     4    1
    19     5     4    1
    20     5     6    1
    21     6     7    1
    22     7     9    1
    23     9    10   ar
    24    10    11   ar
    25    11    12   ar
    26    12    15    1
    27    15    16    1
    28    15    17    1
    29    15    18    1
    30    12    13   ar
    31    13    14   ar
    32     5     8    1
    33    25    26   ar
    34    26    27    1
    35    33    28   ar
    36    26    22   ar
    37     8     2    1
    38     7     5    1
    39    14     9   ar
@<TRIPOS>MOLECULE
*****
 35 39 0 0 0
SMALL
GASTEIGER

@<TRIPOS>ATOM
      1 C         140.2473  144.7182  162.6701 C.3     1  UNL1        0.0730
      2 N         141.6131  144.3123  163.1387 N.3     1  UNL1       -0.2726
      3 C         142.9105  144.6335  162.4578 C.3     1  UNL1        0.0721
      4 C         144.0206  144.0337  163.2688 C.3     1  UNL1        0.0190
      5 C         143.4094  143.3417  164.4510 C.3     1  UNL1        0.0201
      6 C         144.7039  142.8657  165.0406 C.3     1  UNL1        0.0061
      7 C         143.4065  142.5444  165.7216 C.3     1  UNL1        0.0237
      8 C         141.9215  143.5139  164.3706 C.3     1  UNL1        0.0724
      9 C         142.6559  141.8987  166.8483 C.ar    1  UNL1       -0.0225
     10 C         142.6334  140.4042  166.9754 C.ar    1  UNL1       -0.0043
     11 C         141.8828  139.7585  168.1021 C.ar    1  UNL1        0.0035
     12 C         141.1545  140.6072  169.1017 C.ar    1  UNL1        0.0714
     13 C         141.1769  142.1017  168.9747 C.ar    1  UNL1        0.0035
     14 C         141.9276  142.7474  167.8480 C.ar    1  UNL1       -0.0043
     15 C         140.4039  139.9615  170.2284 C.3     1  UNL1        0.4186
     16 F         139.6531  139.3157  171.3552 F       1  UNL1       -0.1659
     17 F         141.4831  138.9275  170.3549 F       1  UNL1       -0.1659
     18 F         139.3246  140.9955  170.1020 F       1  UNL1       -0.1659
     19 C         139.0890  144.6922  163.6229 C.3     1  UNL1        0.0294
     20 C         137.7734  144.1170  163.1888 C.3     1  UNL1        0.0666
     21 S         137.4890  142.6584  163.3920 S.3     1  UNL1       -0.0756
     22 C         140.5441  140.2643  163.3753 C.ar    1  UNL1        0.1713
     23 N         140.1484  140.2193  164.8215 N.ar    1  UNL1       -0.1281
     24 N         138.9558  141.1106  165.0038 N.ar    1  UNL1       -0.1221
     25 C         138.6144  141.7065  163.6702 C.ar    1  UNL1        0.1932
     26 N         139.5960  141.1835  162.6638 N.ar    1  UNL1       -0.2883
     27 C         139.6245  141.5204  161.2024 C.3     1  UNL1        0.1340
     28 C         141.4303  138.2572  161.9839 C.ar    1  UNL1        0.2279
     29 N         142.5733  137.5135  161.3590 N.ar    1  UNL1       -0.2101
     30 C         143.9731  138.0334  161.5006 C.ar    1  UNL1        0.1021
     31 C         144.2301  139.2969  162.2672 C.ar    1  UNL1        0.0210
     32 C         143.0870  140.0405  162.8921 C.ar    1  UNL1        0.0093
     33 C         141.6872  139.5207  162.7504 C.ar    1  UNL1        0.0891
     34 C         139.2279  138.0678  160.6189 C.3     1  UNL1        0.2542
     35 O         140.0304  137.7373  161.8423 O.3     1  UNL1       -0.4561
@<TRIPOS>BOND
     1    34    35    1
     2    35    28    1
     3    28    29   ar
     4    29    30   ar
     5    30    31   ar
     6    31    32   ar
     7    32    33   ar
     8    33    22    1
     9    22    23   ar
    10    23    24   ar
    11    24    25   ar
    12    25    21    1
    13    21    20    1
    14    20    19    1
    15    19     1    1
    16     1     2    1
    17     2     3    1
    18     3     4    1
    19     5     4    1
    20     5     6    1
    21     6     7    1
    22     7     9    1
    23     9    10   ar
    24    10    11   ar
    25    11    12   ar
    26    12    15    1
    27    15    16    1
    28    15    17    1
    29    15    18    1
    30    12    13   ar
    31    13    14   ar
    32     5     8    1
    33    25    26   ar
    34    26    27    1
    35    33    28   ar
    36    26    22   ar
    37     8     2    1
    38     7     5    1
    39    14     9   ar
@<TRIPOS>MOLECULE
*****
 35 39 0 0 0
SMALL
GASTEIGER

@<TRIPOS>ATOM
      1 C         140.5068  143.0709  159.3803 C.3     1  UNL1        0.0730
      2 N         140.3762  143.8058  160.6814 N.3     1  UNL1       -0.2726
      3 C         140.6266  145.2690  160.8965 C.3     1  UNL1        0.0721
      4 C         140.3773  145.5741  162.3439 C.3     1  UNL1        0.0190
      5 C         139.9728  144.2994  163.0233 C.3     1  UNL1        0.0201
      6 C         139.8006  144.8970  164.3882 C.3     1  UNL1        0.0061
      7 C         139.5502  143.4338  164.1731 C.3     1  UNL1        0.0237
      8 C         139.9721  143.2065  161.9958 C.3     1  UNL1        0.0724
      9 C         139.1616  142.0893  164.7128 C.ar    1  UNL1       -0.0225
     10 C         139.6254  141.6652  166.0748 C.ar    1  UNL1       -0.0043
     11 C         139.2368  140.3207  166.6145 C.ar    1  UNL1        0.0035
     12 C         138.3844  139.4003  165.7921 C.ar    1  UNL1        0.0714
     13 C         137.9206  139.8244  164.4301 C.ar    1  UNL1        0.0035
     14 C         138.3092  141.1689  163.8904 C.ar    1  UNL1       -0.0043
     15 C         137.9959  138.0557  166.3318 C.3     1  UNL1        0.4186
     16 F         137.6072  136.7112  166.8715 F       1  UNL1       -0.1659
     17 F         138.6630  137.3937  165.1627 F       1  UNL1       -0.1659
     18 F         137.3288  138.7178  167.5008 F       1  UNL1       -0.1659
     19 C         141.6043  142.0655  159.1938 C.3     1  UNL1        0.0294
     20 C         142.9993  142.3858  159.6426 C.3     1  UNL1        0.0666
     21 S         143.8445  141.3234  160.2805 S.3     1  UNL1       -0.0756
     22 C         144.0527  141.3468  164.1563 C.ar    1  UNL1        0.1713
     23 N         145.4378  141.7904  163.7888 N.ar    1  UNL1       -0.1281
     24 N         145.5283  141.8356  162.2923 N.ar    1  UNL1       -0.1221
     25 C         144.1992  141.4200  161.7347 C.ar    1  UNL1        0.1932
     26 N         143.2873  141.1179  162.8867 N.ar    1  UNL1       -0.2883
     27 C         141.8604  140.6662  162.7867 C.3     1  UNL1        0.1340
     28 C         143.0958  139.8052  166.0156 C.ar    1  UNL1        0.2279
     29 N         142.5687  139.6225  167.4081 N.ar    1  UNL1       -0.2101
     30 C         142.4717  140.7990  168.3336 C.ar    1  UNL1        0.1021
     31 C         142.9016  142.1581  167.8666 C.ar    1  UNL1        0.0210
     32 C         143.4286  142.3407  166.4742 C.ar    1  UNL1        0.0093
     33 C         143.5257  141.1643  165.5487 C.ar    1  UNL1        0.0891
     34 C         142.0570  137.6537  164.9949 C.3     1  UNL1        0.2542
     35 O         143.1929  138.6287  165.0902 O.3     1  UNL1       -0.4561
@<TRIPOS>BOND
     1    34    35    1
     2    35    28    1
     3    28    29   ar
     4    29    30   ar
     5    30    31   ar
     6    31    32   ar
     7    32    33   ar
     8    33    22    1
     9    22    23   ar
    10    23    24   ar
    11    24    25   ar
    12    25    21    1
    13    21    20    1
    14    20    19    1
    15    19     1    1
    16     1     2    1
    17     2     3    1
    18     3     4    1
    19     5     4    1
    20     5     6    1
    21     6     7    1
    22     7     9    1
    23     9    10   ar
    24    10    11   ar
    25    11    12   ar
    26    12    15    1
    27    15    16    1
    28    15    17    1
    29    15    18    1
    30    12    13   ar
    31    13    14   ar
    32     5     8    1
    33    25    26   ar
    34    26    27    1
    35    33    28   ar
    36    26    22   ar
    37     8     2    1
    38     7     5    1
    39    14     9   ar
@<TRIPOS>MOLECULE
*****
 35 39 0 0 0
SMALL
GASTEIGER

@<TRIPOS>ATOM
      1 C         141.7498  137.7211  163.1694 C.3     1  UNL1        0.0730
      2 N         142.7097  138.8635  163.3229 N.3     1  UNL1       -0.2726
      3 C         143.8894  139.1484  162.4414 C.3     1  UNL1        0.0721
      4 C         144.5671  140.3826  162.9586 C.3     1  UNL1        0.0190
      5 C         143.8062  140.8604  164.1598 C.3     1  UNL1        0.0201
      6 C         144.6813  142.0465  164.4380 C.3     1  UNL1        0.0061
      7 C         143.5016  141.7616  165.3196 C.3     1  UNL1        0.0237
      8 C         142.6583  139.9216  164.3849 C.3     1  UNL1        0.0724
      9 C         142.6445  142.1174  166.4981 C.ar    1  UNL1       -0.0225
     10 C         141.2044  142.4843  166.2946 C.ar    1  UNL1       -0.0043
     11 C         140.3474  142.8401  167.4731 C.ar    1  UNL1        0.0035
     12 C         140.9305  142.8289  168.8551 C.ar    1  UNL1        0.0714
     13 C         142.3706  142.4619  169.0585 C.ar    1  UNL1        0.0035
     14 C         143.2277  142.1062  167.8800 C.ar    1  UNL1       -0.0043
     15 C         140.0735  143.1847  170.0336 C.3     1  UNL1        0.4186
     16 F         139.2164  143.5405  171.2122 F       1  UNL1       -0.1659
     17 F         139.5061  141.7962  170.0402 F       1  UNL1       -0.1659
     18 F         140.6409  144.5732  170.0270 F       1  UNL1       -0.1659
     19 C         140.6369  137.5385  164.1583 C.3     1  UNL1        0.0294
     20 C         139.3368  138.2617  163.9664 C.3     1  UNL1        0.0666
     21 S         138.8333  138.5448  162.5821 S.3     1  UNL1       -0.0756
     22 C         138.8991  142.1031  161.0330 C.ar    1  UNL1        0.1713
     23 N         137.6621  142.1777  161.8782 N.ar    1  UNL1       -0.1281
     24 N         137.4869  140.8539  162.5613 N.ar    1  UNL1       -0.1221
     25 C         138.6156  139.9611  162.1384 C.ar    1  UNL1        0.1932
     26 N         139.4884  140.7331  161.1938 N.ar    1  UNL1       -0.2883
     27 C         140.7321  140.2244  160.5271 C.3     1  UNL1        0.1340
     28 C         140.1727  144.3566  160.8109 C.ar    1  UNL1        0.2279
     29 N         140.7237  145.4586  159.9552 N.ar    1  UNL1       -0.2101
     30 C         140.5520  145.4088  158.4659 C.ar    1  UNL1        0.1021
     31 C         139.8293  144.2572  157.8322 C.ar    1  UNL1        0.0210
     32 C         139.2784  143.1553  158.6879 C.ar    1  UNL1        0.0093
     33 C         139.4501  143.2050  160.1772 C.ar    1  UNL1        0.0891
     34 C         141.6540  144.0143  162.9176 C.3     1  UNL1        0.2542
     35 O         140.3445  144.4064  162.3002 O.3     1  UNL1       -0.4561
@<TRIPOS>BOND
     1    34    35    1
     2    35    28    1
     3    28    29   ar
     4    29    30   ar
     5    30    31   ar
     6    31    32   ar
     7    32    33   ar
     8    33    22    1
     9    22    23   ar
    10    23    24   ar
    11    24    25   ar
    12    25    21    1
    13    21    20    1
    14    20    19    1
    15    19     1    1
    16     1     2    1
    17     2     3    1
    18     3     4    1
    19     5     4    1
    20     5     6    1
    21     6     7    1
    22     7     9    1
    23     9    10   ar
    24    10    11   ar
    25    11    12   ar
    26    12    15    1
    27    15    16    1
    28    15    17    1
    29    15    18    1
    30    12    13   ar
    31    13    14   ar
    32     5     8    1
    33    25    26   ar
    34    26    27    1
    35    33    28   ar
    36    26    22   ar
    37     8     2    1
    38     7     5    1
    39    14     9   ar
