@<TRIPOS>MOLECULE
*****
 35 37 0 0 0
SMALL
GASTEIGER

@<TRIPOS>ATOM
      1 C         138.7895  138.7247  165.9091 C.3     1  UNL1        0.0337
      2 C         139.0147  140.1927  165.6986 C.3     1  UNL1        0.1467
      3 N         138.0013  140.0311  164.6046 N.am    1  UNL1       -0.2806
      4 C         137.8022  141.3688  163.9560 C.2     1  UNL1        0.3106
      5 O         136.8754  141.6660  162.8146 O.2     1  UNL1       -0.2521
      6 N         138.6925  142.3572  164.6490 N.am    1  UNL1       -0.2050
      7 C         139.4419  141.6303  165.7261 C.2     1  UNL1        0.2527
      8 O         140.4428  142.2349  166.6657 O.2     1  UNL1       -0.2723
      9 H         137.5467  139.1940  164.3560 H       1  UNL1        0.1516
     10 C         139.9811  140.0474  166.8367 C.ar    1  UNL1        0.0021
     11 C         141.4233  139.7406  166.5614 C.ar    1  UNL1       -0.0009
     12 C         142.3896  139.5953  167.6994 C.ar    1  UNL1        0.0196
     13 C         141.9136  139.7567  169.1127 C.ar    1  UNL1        0.1217
     14 C         140.4714  140.0635  169.3880 C.ar    1  UNL1        0.0196
     15 C         139.5051  140.2088  168.2500 C.ar    1  UNL1       -0.0009
     16 S         142.8800  139.6114  170.2508 S.O2    1  UNL1        0.0572
     17 N         143.8463  139.4661  171.3888 N.3     1  UNL1       -0.2035
     18 O         143.0558  138.1598  169.9162 O.2     1  UNL1       -0.1532
     19 O         142.7042  141.0630  170.5854 O.2     1  UNL1       -0.1532
     20 H         144.1780  138.5025  171.4322 H       1  UNL1        0.1442
     21 H         143.3795  139.7048  172.2638 H       1  UNL1        0.1442
     22 C         138.8124  143.8163  164.3224 C.3     1  UNL1        0.1714
     23 C         139.6528  144.2582  163.1612 C.2     1  UNL1        0.1936
     24 O         138.9984  144.7963  161.9234 O.2     1  UNL1       -0.2895
     25 C         141.1478  144.1621  163.2378 C.ar    1  UNL1        0.0395
     26 C         141.9522  145.3393  163.7036 C.ar    1  UNL1        0.0031
     27 C         143.4471  145.2432  163.7803 C.ar    1  UNL1        0.0032
     28 C         144.1377  143.9698  163.3910 C.ar    1  UNL1        0.0372
     29 C         143.3333  142.7926  162.9252 C.ar    1  UNL1        0.1469
     30 C         141.8385  142.8886  162.8485 C.ar    1  UNL1        0.0401
     31 O         144.0240  141.5191  162.5359 O.3     1  UNL1       -0.4045
     32 C         144.6708  140.6654  163.5860 C.3     1  UNL1        0.5753
     33 F         145.3177  139.8117  164.6363 F       1  UNL1       -0.1328
     34 F         145.9897  141.3242  163.3092 F       1  UNL1       -0.1328
     35 F         143.3519  140.0066  163.8629 F       1  UNL1       -0.1328
@<TRIPOS>BOND
     1     1     2    1
     2     2    10    1
     3    10    11   ar
     4    11    12   ar
     5    12    13   ar
     6    13    16    1
     7    16    17    1
     8    16    18    2
     9    16    19    2
    10    13    14   ar
    11    14    15   ar
    12     2     3    1
    13     3     4   am
    14     4     5    2
    15     4     6   am
    16     6    22    1
    17    22    23    1
    18    23    24    2
    19    23    25    1
    20    25    26   ar
    21    26    27   ar
    22    27    28   ar
    23    28    29   ar
    24    29    31    1
    25    31    32    1
    26    32    33    1
    27    32    34    1
    28    32    35    1
    29    29    30   ar
    30     6     7   am
    31     7     8    2
    32     7     2    1
    33    15    10   ar
    34    30    25   ar
    35    17    20    1
    36    17    21    1
    37     3     9    1
@<TRIPOS>MOLECULE
*****
 35 37 0 0 0
SMALL
GASTEIGER

@<TRIPOS>ATOM
      1 C         143.4687  138.5594  166.1267 C.3     1  UNL1        0.0337
      2 C         142.0737  139.0295  165.8388 C.3     1  UNL1        0.1467
      3 N         142.0909  137.9456  164.8021 N.am    1  UNL1       -0.2806
      4 C         140.7640  137.9520  164.1028 C.2     1  UNL1        0.3106
      5 O         140.3475  137.0320  162.9937 O.2     1  UNL1       -0.2521
      6 N         139.9266  139.0398  164.7072 N.am    1  UNL1       -0.2050
      7 C         140.7361  139.7058  165.7802 C.2     1  UNL1        0.2527
      8 O         140.2868  140.8476  166.6430 O.2     1  UNL1       -0.2723
      9 H         142.8414  137.3369  164.6137 H       1  UNL1        0.1516
     10 C         142.3482  140.0152  166.9357 C.ar    1  UNL1        0.0021
     11 C         142.8581  141.3859  166.6022 C.ar    1  UNL1       -0.0009
     12 C         143.1325  142.3714  167.6991 C.ar    1  UNL1        0.0196
     13 C         142.8971  141.9864  169.1296 C.ar    1  UNL1        0.1217
     14 C         142.3872  140.6157  169.4631 C.ar    1  UNL1        0.0196
     15 C         142.1128  139.6301  168.3662 C.ar    1  UNL1       -0.0009
     16 S         143.1716  142.9720  170.2265 S.O2    1  UNL1        0.0572
     17 N         143.4461  143.9576  171.3234 N.3     1  UNL1       -0.2035
     18 O         141.7056  143.0332  170.5384 O.2     1  UNL1       -0.1532
     19 O         144.6375  142.9108  169.9147 O.2     1  UNL1       -0.1532
     20 H         142.5684  144.2203  171.7719 H       1  UNL1        0.1442
     21 H         143.8893  144.7883  170.9310 H       1  UNL1        0.1442
     22 C         138.5258  139.3987  164.3087 C.3     1  UNL1        0.1714
     23 C         138.2848  140.5235  163.3461 C.2     1  UNL1        0.1936
     24 O         137.5825  140.2614  162.0468 O.2     1  UNL1       -0.2895
     25 C         138.7460  141.9106  163.6827 C.ar    1  UNL1        0.0395
     26 C         137.8678  142.8169  164.4936 C.ar    1  UNL1        0.0031
     27 C         138.3290  144.2039  164.8302 C.ar    1  UNL1        0.0032
     28 C         139.6684  144.6847  164.3562 C.ar    1  UNL1        0.0372
     29 C         140.5466  143.7784  163.5453 C.ar    1  UNL1        0.1469
     30 C         140.0855  142.3914  163.2086 C.ar    1  UNL1        0.0401
     31 O         141.8861  144.2592  163.0712 O.3     1  UNL1       -0.4045
     32 C         143.0560  144.2658  164.0100 C.3     1  UNL1        0.5753
     33 F         144.2259  144.2723  164.9489 F       1  UNL1       -0.1328
     34 F         142.8201  145.7197  164.2937 F       1  UNL1       -0.1328
     35 F         143.2918  142.8118  163.7263 F       1  UNL1       -0.1328
@<TRIPOS>BOND
     1     1     2    1
     2     2    10    1
     3    10    11   ar
     4    11    12   ar
     5    12    13   ar
     6    13    16    1
     7    16    17    1
     8    16    18    2
     9    16    19    2
    10    13    14   ar
    11    14    15   ar
    12     2     3    1
    13     3     4   am
    14     4     5    2
    15     4     6   am
    16     6    22    1
    17    22    23    1
    18    23    24    2
    19    23    25    1
    20    25    26   ar
    21    26    27   ar
    22    27    28   ar
    23    28    29   ar
    24    29    31    1
    25    31    32    1
    26    32    33    1
    27    32    34    1
    28    32    35    1
    29    29    30   ar
    30     6     7   am
    31     7     8    2
    32     7     2    1
    33    15    10   ar
    34    30    25   ar
    35    17    20    1
    36    17    21    1
    37     3     9    1
@<TRIPOS>MOLECULE
*****
 35 37 0 0 0
SMALL
GASTEIGER

@<TRIPOS>ATOM
      1 C         138.9415  138.6797  165.8593 C.3     1  UNL1        0.0337
      2 C         139.1083  140.1614  165.6959 C.3     1  UNL1        0.1467
      3 N         138.1148  139.9920  164.5849 N.am    1  UNL1       -0.2806
      4 C         137.8680  141.3396  163.9742 C.2     1  UNL1        0.3106
      5 O         136.9428  141.6334  162.8308 O.2     1  UNL1       -0.2521
      6 N         138.7089  142.3420  164.7078 N.am    1  UNL1       -0.2050
      7 C         139.4755  141.6138  165.7718 C.2     1  UNL1        0.2527
      8 O         140.4399  142.2299  166.7416 O.2     1  UNL1       -0.2723
      9 H         137.6979  139.1450  164.3055 H       1  UNL1        0.1516
     10 C         140.0669  140.0211  166.8411 C.ar    1  UNL1        0.0021
     11 C         141.5245  139.7882  166.5747 C.ar    1  UNL1       -0.0009
     12 C         142.4831  139.6479  167.7199 C.ar    1  UNL1        0.0196
     13 C         141.9839  139.7403  169.1314 C.ar    1  UNL1        0.1217
     14 C         140.5263  139.9732  169.3977 C.ar    1  UNL1        0.0196
     15 C         139.5678  140.1135  168.2526 C.ar    1  UNL1       -0.0009
     16 S         142.9426  139.5999  170.2766 S.O2    1  UNL1        0.0572
     17 N         143.9011  139.4595  171.4217 N.3     1  UNL1       -0.2035
     18 O         142.9651  141.0908  170.4406 O.2     1  UNL1       -0.1532
     19 O         142.9201  138.1091  170.1126 O.2     1  UNL1       -0.1532
     20 H         144.1328  140.3835  171.7864 H       1  UNL1        0.1442
     21 H         144.7517  138.9985  171.0986 H       1  UNL1        0.1442
     22 C         138.7723  143.8140  164.4267 C.3     1  UNL1        0.1714
     23 C         139.0043  144.3010  163.0270 C.2     1  UNL1        0.1936
     24 O         137.9367  145.0797  162.3171 O.2     1  UNL1       -0.2895
     25 C         140.3039  144.0091  162.3372 C.ar    1  UNL1        0.0395
     26 C         140.3054  143.4656  160.9391 C.ar    1  UNL1        0.0031
     27 C         141.6050  143.1738  160.2493 C.ar    1  UNL1        0.0032
     28 C         142.9031  143.4253  160.9575 C.ar    1  UNL1        0.0372
     29 C         142.9016  143.9688  162.3556 C.ar    1  UNL1        0.1469
     30 C         141.6021  144.2606  163.0454 C.ar    1  UNL1        0.0401
     31 O         144.1997  144.2204  163.0639 O.3     1  UNL1       -0.4045
     32 C         144.3304  143.9054  164.5247 C.3     1  UNL1        0.5753
     33 F         144.4610  143.5905  165.9855 F       1  UNL1       -0.1328
     34 F         144.5210  142.4546  164.1948 F       1  UNL1       -0.1328
     35 F         144.1397  145.3563  164.8545 F       1  UNL1       -0.1328
@<TRIPOS>BOND
     1     1     2    1
     2     2    10    1
     3    10    11   ar
     4    11    12   ar
     5    12    13   ar
     6    13    16    1
     7    16    17    1
     8    16    18    2
     9    16    19    2
    10    13    14   ar
    11    14    15   ar
    12     2     3    1
    13     3     4   am
    14     4     5    2
    15     4     6   am
    16     6    22    1
    17    22    23    1
    18    23    24    2
    19    23    25    1
    20    25    26   ar
    21    26    27   ar
    22    27    28   ar
    23    28    29   ar
    24    29    31    1
    25    31    32    1
    26    32    33    1
    27    32    34    1
    28    32    35    1
    29    29    30   ar
    30     6     7   am
    31     7     8    2
    32     7     2    1
    33    15    10   ar
    34    30    25   ar
    35    17    20    1
    36    17    21    1
    37     3     9    1
@<TRIPOS>MOLECULE
*****
 35 37 0 0 0
SMALL
GASTEIGER

@<TRIPOS>ATOM
      1 C         141.6527  138.0102  164.8958 C.3     1  UNL1        0.0337
      2 C         142.0228  139.4405  164.6365 C.3     1  UNL1        0.1467
      3 N         142.2449  138.9639  163.2317 N.am    1  UNL1       -0.2806
      4 C         142.6895  140.1368  162.4092 C.2     1  UNL1        0.3106
      5 O         143.0230  140.1125  160.9470 O.2     1  UNL1       -0.2521
      6 N         142.7423  141.3383  163.3056 N.am    1  UNL1       -0.2050
      7 C         142.3302  140.9079  164.6822 C.2     1  UNL1        0.2527
      8 O         142.2411  141.7901  165.8921 O.2     1  UNL1       -0.2723
      9 H         142.1206  138.0430  162.9066 H       1  UNL1        0.1516
     10 C         141.7233  139.6180  166.0956 C.ar    1  UNL1        0.0021
     11 C         140.3439  140.0098  166.5359 C.ar    1  UNL1       -0.0009
     12 C         140.0445  140.1873  167.9949 C.ar    1  UNL1        0.0196
     13 C         141.1244  139.9730  169.0136 C.ar    1  UNL1        0.1217
     14 C         142.5038  139.5812  168.5734 C.ar    1  UNL1        0.0196
     15 C         142.8032  139.4037  167.1144 C.ar    1  UNL1       -0.0009
     16 S         140.8250  140.1505  170.4727 S.O2    1  UNL1        0.0572
     17 N         140.5255  140.3280  171.9318 N.3     1  UNL1       -0.2035
     18 O         139.3979  139.7590  170.2275 O.2     1  UNL1       -0.1532
     19 O         142.2520  140.5420  170.7180 O.2     1  UNL1       -0.1532
     20 H         139.5427  140.1172  172.1053 H       1  UNL1        0.1442
     21 H         140.7198  141.2916  172.2039 H       1  UNL1        0.1442
     22 C         143.1377  142.7264  162.8973 C.3     1  UNL1        0.1714
     23 C         142.0983  143.6862  162.3987 C.2     1  UNL1        0.1936
     24 O         142.4077  144.5948  161.2460 O.2     1  UNL1       -0.2895
     25 C         140.7495  143.7373  163.0530 C.ar    1  UNL1        0.0395
     26 C         140.4924  144.7088  164.1666 C.ar    1  UNL1        0.0031
     27 C         139.1436  144.7600  164.8208 C.ar    1  UNL1        0.0032
     28 C         138.0518  143.8397  164.3615 C.ar    1  UNL1        0.0372
     29 C         138.3088  142.8682  163.2479 C.ar    1  UNL1        0.1469
     30 C         139.6576  142.8170  162.5936 C.ar    1  UNL1        0.0401
     31 O         137.2170  141.9479  162.7885 O.3     1  UNL1       -0.4045
     32 C         137.4805  140.4767  162.6606 C.3     1  UNL1        0.5753
     33 F         137.7439  139.0055  162.5327 F       1  UNL1       -0.1328
     34 F         137.2981  140.5733  161.1748 F       1  UNL1       -0.1328
     35 F         137.6628  140.3803  164.1464 F       1  UNL1       -0.1328
@<TRIPOS>BOND
     1     1     2    1
     2     2    10    1
     3    10    11   ar
     4    11    12   ar
     5    12    13   ar
     6    13    16    1
     7    16    17    1
     8    16    18    2
     9    16    19    2
    10    13    14   ar
    11    14    15   ar
    12     2     3    1
    13     3     4   am
    14     4     5    2
    15     4     6   am
    16     6    22    1
    17    22    23    1
    18    23    24    2
    19    23    25    1
    20    25    26   ar
    21    26    27   ar
    22    27    28   ar
    23    28    29   ar
    24    29    31    1
    25    31    32    1
    26    32    33    1
    27    32    34    1
    28    32    35    1
    29    29    30   ar
    30     6     7   am
    31     7     8    2
    32     7     2    1
    33    15    10   ar
    34    30    25   ar
    35    17    20    1
    36    17    21    1
    37     3     9    1
@<TRIPOS>MOLECULE
*****
 35 37 0 0 0
SMALL
GASTEIGER

@<TRIPOS>ATOM
      1 C         144.0945  139.1474  165.0863 C.3     1  UNL1        0.0337
      2 C         142.6009  139.2372  164.9801 C.3     1  UNL1        0.1467
      3 N         142.7909  138.3588  163.7792 N.am    1  UNL1       -0.2806
      4 C         141.4403  138.0855  163.1866 C.2     1  UNL1        0.3106
      5 O         141.1630  137.2495  161.9724 O.2     1  UNL1       -0.2521
      6 N         140.4156  138.7950  164.0212 N.am    1  UNL1       -0.2050
      7 C         141.1330  139.5068  165.1298 C.2     1  UNL1        0.2527
      8 O         140.4944  140.3416  166.2000 O.2     1  UNL1       -0.2723
      9 H         143.6510  138.0210  163.4395 H       1  UNL1        0.1516
     10 C         142.7233  140.0968  166.2034 C.ar    1  UNL1        0.0021
     11 C         142.5854  139.4858  167.5663 C.ar    1  UNL1       -0.0009
     12 C         142.7078  140.3454  168.7894 C.ar    1  UNL1        0.0196
     13 C         142.9679  141.8161  168.6496 C.ar    1  UNL1        0.1217
     14 C         143.1058  142.4271  167.2866 C.ar    1  UNL1        0.0196
     15 C         142.9834  141.5675  166.0635 C.ar    1  UNL1       -0.0009
     16 S         143.0903  142.6757  169.8728 S.O2    1  UNL1        0.0572
     17 N         143.2126  143.5353  171.0959 N.3     1  UNL1       -0.2035
     18 O         144.5571  142.8438  169.6080 O.2     1  UNL1       -0.1532
     19 O         141.6235  142.5076  170.1375 O.2     1  UNL1       -0.1532
     20 H         144.1807  143.8379  171.2034 H       1  UNL1        0.1442
     21 H         142.9304  143.0001  171.9171 H       1  UNL1        0.1442
     22 C         138.9338  138.7930  163.7883 C.3     1  UNL1        0.1714
     23 C         138.3707  139.3974  162.5363 C.2     1  UNL1        0.1936
     24 O         137.4161  138.6112  161.6874 O.2     1  UNL1       -0.2895
     25 C         138.7622  140.7881  162.1331 C.ar    1  UNL1        0.0395
     26 C         139.6588  141.0016  160.9496 C.ar    1  UNL1        0.0031
     27 C         140.0503  142.3923  160.5464 C.ar    1  UNL1        0.0032
     28 C         139.5453  143.5696  161.3266 C.ar    1  UNL1        0.0372
     29 C         138.6487  143.3562  162.5101 C.ar    1  UNL1        0.1469
     30 C         138.2572  141.9656  162.9133 C.ar    1  UNL1        0.0401
     31 O         138.1436  144.5336  163.2904 O.3     1  UNL1       -0.4045
     32 C         138.5254  144.6978  164.7316 C.3     1  UNL1        0.5753
     33 F         138.9073  144.8619  166.1730 F       1  UNL1       -0.1328
     34 F         137.1221  144.3621  165.1416 F       1  UNL1       -0.1328
     35 F         139.9288  145.0334  164.3216 F       1  UNL1       -0.1328
@<TRIPOS>BOND
     1     1     2    1
     2     2    10    1
     3    10    11   ar
     4    11    12   ar
     5    12    13   ar
     6    13    16    1
     7    16    17    1
     8    16    18    2
     9    16    19    2
    10    13    14   ar
    11    14    15   ar
    12     2     3    1
    13     3     4   am
    14     4     5    2
    15     4     6   am
    16     6    22    1
    17    22    23    1
    18    23    24    2
    19    23    25    1
    20    25    26   ar
    21    26    27   ar
    22    27    28   ar
    23    28    29   ar
    24    29    31    1
    25    31    32    1
    26    32    33    1
    27    32    34    1
    28    32    35    1
    29    29    30   ar
    30     6     7   am
    31     7     8    2
    32     7     2    1
    33    15    10   ar
    34    30    25   ar
    35    17    20    1
    36    17    21    1
    37     3     9    1
@<TRIPOS>MOLECULE
*****
 35 37 0 0 0
SMALL
GASTEIGER

@<TRIPOS>ATOM
      1 C         139.1783  137.5853  165.0307 C.3     1  UNL1        0.0337
      2 C         138.8385  138.9873  164.6197 C.3     1  UNL1        0.1467
      3 N         138.5217  138.3550  163.2969 N.am    1  UNL1       -0.2806
      4 C         138.0672  139.4371  162.3629 C.2     1  UNL1        0.3106
      5 O         137.6500  139.2508  160.9342 O.2     1  UNL1       -0.2521
      6 N         138.1031  140.7382  163.1084 N.am    1  UNL1       -0.2050
      7 C         138.5799  140.4602  164.5032 C.2     1  UNL1        0.2527
      8 O         138.7653  141.4767  165.5906 O.2     1  UNL1       -0.2723
      9 H         138.5986  137.3978  163.0798 H       1  UNL1        0.1516
     10 C         139.2264  139.3265  166.0284 C.ar    1  UNL1        0.0021
     11 C         138.2083  139.2453  167.1269 C.ar    1  UNL1       -0.0009
     12 C         138.5962  139.5845  168.5356 C.ar    1  UNL1        0.0196
     13 C         140.0023  140.0049  168.8458 C.ar    1  UNL1        0.1217
     14 C         141.0204  140.0861  167.7473 C.ar    1  UNL1        0.0196
     15 C         140.6325  139.7469  166.3386 C.ar    1  UNL1       -0.0009
     16 S         140.3902  140.3440  170.2546 S.O2    1  UNL1        0.0572
     17 N         140.7781  140.6832  171.6633 N.3     1  UNL1       -0.2035
     18 O         139.0775  139.8089  170.7449 O.2     1  UNL1       -0.1532
     19 O         141.7028  140.8792  169.7642 O.2     1  UNL1       -0.1532
     20 H         140.0244  140.4170  172.2969 H       1  UNL1        0.1442
     21 H         140.9462  141.6866  171.7374 H       1  UNL1        0.1442
     22 C         137.7282  142.0815  162.5561 C.3     1  UNL1        0.1714
     23 C         138.7438  142.8960  161.8109 C.2     1  UNL1        0.1936
     24 O         138.5083  143.2563  160.3740 O.2     1  UNL1       -0.2895
     25 C         139.9948  143.3502  162.5027 C.ar    1  UNL1        0.0395
     26 C         140.0660  144.7256  163.0971 C.ar    1  UNL1        0.0031
     27 C         141.3170  145.1798  163.7889 C.ar    1  UNL1        0.0032
     28 C         142.4969  144.2587  163.8864 C.ar    1  UNL1        0.0372
     29 C         142.4256  142.8833  163.2920 C.ar    1  UNL1        0.1469
     30 C         141.1747  142.4291  162.6002 C.ar    1  UNL1        0.0401
     31 O         143.6055  141.9621  163.3894 O.3     1  UNL1       -0.4045
     32 C         143.6966  140.9767  164.5166 C.3     1  UNL1        0.5753
     33 F         143.7876  139.9911  165.6438 F       1  UNL1       -0.1328
     34 F         144.2751  142.0414  165.4007 F       1  UNL1       -0.1328
     35 F         143.1180  139.9119  163.6324 F       1  UNL1       -0.1328
@<TRIPOS>BOND
     1     1     2    1
     2     2    10    1
     3    10    11   ar
     4    11    12   ar
     5    12    13   ar
     6    13    16    1
     7    16    17    1
     8    16    18    2
     9    16    19    2
    10    13    14   ar
    11    14    15   ar
    12     2     3    1
    13     3     4   am
    14     4     5    2
    15     4     6   am
    16     6    22    1
    17    22    23    1
    18    23    24    2
    19    23    25    1
    20    25    26   ar
    21    26    27   ar
    22    27    28   ar
    23    28    29   ar
    24    29    31    1
    25    31    32    1
    26    32    33    1
    27    32    34    1
    28    32    35    1
    29    29    30   ar
    30     6     7   am
    31     7     8    2
    32     7     2    1
    33    15    10   ar
    34    30    25   ar
    35    17    20    1
    36    17    21    1
    37     3     9    1
@<TRIPOS>MOLECULE
*****
 35 37 0 0 0
SMALL
GASTEIGER

@<TRIPOS>ATOM
      1 C         138.8697  139.4125  166.7648 C.3     1  UNL1        0.0337
      2 C         139.8906  139.6913  165.7017 C.3     1  UNL1        0.1467
      3 N         139.0017  138.8386  164.8457 N.am    1  UNL1       -0.2806
      4 C         139.6144  138.7565  163.4791 C.2     1  UNL1        0.3106
      5 O         139.0573  138.0046  162.3068 O.2     1  UNL1       -0.2521
      6 N         140.8820  139.5584  163.4904 N.am    1  UNL1       -0.2050
      7 C         141.0527  140.1361  164.8641 C.2     1  UNL1        0.2527
      8 O         142.1865  141.0060  165.3201 O.2     1  UNL1       -0.2723
      9 H         138.1633  138.4084  165.1308 H       1  UNL1        0.1516
     10 C         140.5661  140.4856  166.7801 C.ar    1  UNL1        0.0021
     11 C         140.2334  141.9368  166.9628 C.ar    1  UNL1       -0.0009
     12 C         140.9089  142.7310  168.0411 C.ar    1  UNL1        0.0196
     13 C         141.9171  142.0742  168.9367 C.ar    1  UNL1        0.1217
     14 C         142.2499  140.6230  168.7539 C.ar    1  UNL1        0.0196
     15 C         141.5744  139.8288  167.6756 C.ar    1  UNL1       -0.0009
     16 S         142.5927  142.8685  170.0150 S.O2    1  UNL1        0.0572
     17 N         143.2682  143.6629  171.0933 N.3     1  UNL1       -0.2035
     18 O         141.2851  142.9984  170.7385 O.2     1  UNL1       -0.1532
     19 O         143.9002  142.7387  169.2915 O.2     1  UNL1       -0.1532
     20 H         142.5830  143.9262  171.8015 H       1  UNL1        0.1442
     21 H         143.6796  144.5040  170.6888 H       1  UNL1        0.1442
     22 C         141.8150  139.7491  162.3315 C.3     1  UNL1        0.1714
     23 C         141.7142  140.9816  161.4825 C.2     1  UNL1        0.1936
     24 O         141.5120  140.8577  160.0014 O.2     1  UNL1       -0.2895
     25 C         141.8157  142.3381  162.1146 C.ar    1  UNL1        0.0395
     26 C         143.1625  142.9354  162.3964 C.ar    1  UNL1        0.0031
     27 C         143.2640  144.2918  163.0286 C.ar    1  UNL1        0.0032
     28 C         142.0188  145.0511  163.3790 C.ar    1  UNL1        0.0372
     29 C         140.6720  144.4538  163.0973 C.ar    1  UNL1        0.1469
     30 C         140.5704  143.0974  162.4651 C.ar    1  UNL1        0.0401
     31 O         139.4266  145.2131  163.4477 O.3     1  UNL1       -0.4045
     32 C         138.3613  144.5633  164.2800 C.3     1  UNL1        0.5753
     33 F         137.2960  143.9134  165.1125 F       1  UNL1       -0.1328
     34 F         137.5113  144.3894  163.0564 F       1  UNL1       -0.1328
     35 F         139.2114  144.7372  165.5037 F       1  UNL1       -0.1328
@<TRIPOS>BOND
     1     1     2    1
     2     2    10    1
     3    10    11   ar
     4    11    12   ar
     5    12    13   ar
     6    13    16    1
     7    16    17    1
     8    16    18    2
     9    16    19    2
    10    13    14   ar
    11    14    15   ar
    12     2     3    1
    13     3     4   am
    14     4     5    2
    15     4     6   am
    16     6    22    1
    17    22    23    1
    18    23    24    2
    19    23    25    1
    20    25    26   ar
    21    26    27   ar
    22    27    28   ar
    23    28    29   ar
    24    29    31    1
    25    31    32    1
    26    32    33    1
    27    32    34    1
    28    32    35    1
    29    29    30   ar
    30     6     7   am
    31     7     8    2
    32     7     2    1
    33    15    10   ar
    34    30    25   ar
    35    17    20    1
    36    17    21    1
    37     3     9    1
@<TRIPOS>MOLECULE
*****
 35 37 0 0 0
SMALL
GASTEIGER

@<TRIPOS>ATOM
      1 C         138.9745  143.1914  165.0035 C.3     1  UNL1        0.0337
      2 C         140.3992  142.7873  164.7652 C.3     1  UNL1        0.1467
      3 N         140.2361  143.5498  163.4838 N.am    1  UNL1       -0.2806
      4 C         141.5319  143.4751  162.7319 C.2     1  UNL1        0.3106
      5 O         141.8141  144.0995  161.3976 O.2     1  UNL1       -0.2521
      6 N         142.4958  142.6665  163.5485 N.am    1  UNL1       -0.2050
      7 C         141.7958  142.2414  164.8052 C.2     1  UNL1        0.2527
      8 O         142.3883  141.4154  165.9082 O.2     1  UNL1       -0.2723
      9 H         139.4216  144.0172  163.1882 H       1  UNL1        0.1516
     10 C         140.2644  142.1092  166.0964 C.ar    1  UNL1        0.0021
     11 C         139.7979  140.6855  166.1692 C.ar    1  UNL1       -0.0009
     12 C         139.6632  140.0075  167.5004 C.ar    1  UNL1        0.0196
     13 C         139.9949  140.7533  168.7588 C.ar    1  UNL1        0.1217
     14 C         140.4613  142.1771  168.6861 C.ar    1  UNL1        0.0196
     15 C         140.5961  142.8550  167.3549 C.ar    1  UNL1       -0.0009
     16 S         139.8601  140.0753  170.0901 S.O2    1  UNL1        0.0572
     17 N         139.7252  139.3973  171.4213 N.3     1  UNL1       -0.2035
     18 O         141.2226  139.4714  169.9205 O.2     1  UNL1       -0.1532
     19 O         138.4976  140.6792  170.2597 O.2     1  UNL1       -0.1532
     20 H         140.5682  138.8564  171.6143 H       1  UNL1        0.1442
     21 H         138.9178  138.7743  171.4053 H       1  UNL1        0.1442
     22 C         143.9112  142.3403  163.1742 C.3     1  UNL1        0.1714
     23 C         144.4032  140.9260  163.2620 C.2     1  UNL1        0.1936
     24 O         145.5631  140.5891  164.1514 O.2     1  UNL1       -0.2895
     25 C         143.7352  139.8485  162.4602 C.ar    1  UNL1        0.0395
     26 C         144.0774  139.6709  161.0106 C.ar    1  UNL1        0.0031
     27 C         143.4094  138.5934  160.2089 C.ar    1  UNL1        0.0032
     28 C         142.3993  137.6935  160.8567 C.ar    1  UNL1        0.0372
     29 C         142.0571  137.8711  162.3063 C.ar    1  UNL1        0.1469
     30 C         142.7250  138.9485  163.1081 C.ar    1  UNL1        0.0401
     31 O         141.0468  136.9712  162.9542 O.3     1  UNL1       -0.4045
     32 C         139.7623  137.5409  163.4790 C.3     1  UNL1        0.5753
     33 F         138.4777  138.1106  164.0037 F       1  UNL1       -0.1328
     34 F         140.2291  137.2992  164.8839 F       1  UNL1       -0.1328
     35 F         139.2955  137.7825  162.0740 F       1  UNL1       -0.1328
@<TRIPOS>BOND
     1     1     2    1
     2     2    10    1
     3    10    11   ar
     4    11    12   ar
     5    12    13   ar
     6    13    16    1
     7    16    17    1
     8    16    18    2
     9    16    19    2
    10    13    14   ar
    11    14    15   ar
    12     2     3    1
    13     3     4   am
    14     4     5    2
    15     4     6   am
    16     6    22    1
    17    22    23    1
    18    23    24    2
    19    23    25    1
    20    25    26   ar
    21    26    27   ar
    22    27    28   ar
    23    28    29   ar
    24    29    31    1
    25    31    32    1
    26    32    33    1
    27    32    34    1
    28    32    35    1
    29    29    30   ar
    30     6     7   am
    31     7     8    2
    32     7     2    1
    33    15    10   ar
    34    30    25   ar
    35    17    20    1
    36    17    21    1
    37     3     9    1
@<TRIPOS>MOLECULE
*****
 35 37 0 0 0
SMALL
GASTEIGER

@<TRIPOS>ATOM
      1 C         141.6342  137.5847  164.8448 C.3     1  UNL1        0.0337
      2 C         142.5174  138.7719  164.5987 C.3     1  UNL1        0.1467
      3 N         142.7096  138.1506  163.2470 N.am    1  UNL1       -0.2806
      4 C         143.6328  139.0318  162.4589 C.2     1  UNL1        0.3106
      5 O         144.0962  138.7897  161.0530 O.2     1  UNL1       -0.2521
      6 N         144.0112  140.1977  163.3235 N.am    1  UNL1       -0.2050
      7 C         143.3219  140.0370  164.6460 C.2     1  UNL1        0.2527
      8 O         143.4198  140.9766  165.8112 O.2     1  UNL1       -0.2723
      9 H         142.3014  137.3118  162.9323 H       1  UNL1        0.1516
     10 C         142.1406  139.1449  166.0019 C.ar    1  UNL1        0.0021
     11 C         140.8429  139.8484  166.2681 C.ar    1  UNL1       -0.0009
     12 C         140.4661  140.2214  167.6712 C.ar    1  UNL1        0.0196
     13 C         141.3870  139.8909  168.8082 C.ar    1  UNL1        0.1217
     14 C         142.6847  139.1874  168.5420 C.ar    1  UNL1        0.0196
     15 C         143.0615  138.8144  167.1388 C.ar    1  UNL1       -0.0009
     16 S         141.0102  140.2639  170.2114 S.O2    1  UNL1        0.0572
     17 N         140.6334  140.6370  171.6145 N.3     1  UNL1       -0.2035
     18 O         139.6070  139.7981  169.9584 O.2     1  UNL1       -0.1532
     19 O         142.4133  140.7298  170.4643 O.2     1  UNL1       -0.1532
     20 H         139.6484  140.4228  171.7704 H       1  UNL1        0.1442
     21 H         140.7907  141.6349  171.7549 H       1  UNL1        0.1442
     22 C         144.9195  141.3261  162.9340 C.3     1  UNL1        0.1714
     23 C         144.3992  142.4495  162.0870 C.2     1  UNL1        0.1936
     24 O         145.0159  142.7274  160.7482 O.2     1  UNL1       -0.2895
     25 C         143.2621  143.2951  162.5790 C.ar    1  UNL1        0.0395
     26 C         143.5406  144.5567  163.3411 C.ar    1  UNL1        0.0031
     27 C         142.4035  145.4022  163.8331 C.ar    1  UNL1        0.0032
     28 C         140.9879  144.9862  163.5630 C.ar    1  UNL1        0.0372
     29 C         140.7094  143.7246  162.8009 C.ar    1  UNL1        0.1469
     30 C         141.8464  142.8791  162.3089 C.ar    1  UNL1        0.0401
     31 O         139.2937  143.3086  162.5308 O.3     1  UNL1       -0.4045
     32 C         138.3295  143.1466  163.6684 C.3     1  UNL1        0.5753
     33 F         137.3653  142.9847  164.8061 F       1  UNL1       -0.1328
     34 F         137.3593  144.0570  162.9756 F       1  UNL1       -0.1328
     35 F         139.2998  142.2363  164.3611 F       1  UNL1       -0.1328
@<TRIPOS>BOND
     1     1     2    1
     2     2    10    1
     3    10    11   ar
     4    11    12   ar
     5    12    13   ar
     6    13    16    1
     7    16    17    1
     8    16    18    2
     9    16    19    2
    10    13    14   ar
    11    14    15   ar
    12     2     3    1
    13     3     4   am
    14     4     5    2
    15     4     6   am
    16     6    22    1
    17    22    23    1
    18    23    24    2
    19    23    25    1
    20    25    26   ar
    21    26    27   ar
    22    27    28   ar
    23    28    29   ar
    24    29    31    1
    25    31    32    1
    26    32    33    1
    27    32    34    1
    28    32    35    1
    29    29    30   ar
    30     6     7   am
    31     7     8    2
    32     7     2    1
    33    15    10   ar
    34    30    25   ar
    35    17    20    1
    36    17    21    1
    37     3     9    1
