@<TRIPOS>MOLECULE
*****
 34 38 0 0 0
SMALL
GASTEIGER

@<TRIPOS>ATOM
      1 C         139.7849  139.5948  162.8879 C.ar    1  UNL1        0.0878
      2 C         138.6522  138.8021  163.4695 C.ar    1  UNL1        0.1543
      3 F         137.7515  138.0094  162.5693 F       1  UNL1       -0.2028
      4 C         138.4201  138.8020  164.9514 C.ar    1  UNL1        0.0356
      5 C         139.3208  139.5947  165.8517 C.ar    1  UNL1        0.0580
      6 C         139.0886  139.5946  167.3337 C.ar    1  UNL1        0.1996
      7 O         137.9558  138.8018  167.9153 O.2     1  UNL1       -0.2864
      8 C         139.9893  140.3872  168.2339 C.ar    1  UNL1        0.0701
      9 C         141.1222  141.1799  167.6522 C.ar    1  UNL1        0.0801
     10 N         141.3542  141.1800  166.1703 N.ar    1  UNL1       -0.3270
     11 C         140.4535  140.3874  165.2700 C.ar    1  UNL1        0.0750
     12 C         140.6856  140.3874  163.7881 C.ar    1  UNL1        0.0890
     13 CL        141.8185  141.1802  163.2064 Cl      1  UNL1       -0.0794
     14 C         140.6025  138.8814  159.1611 C.3     1  UNL1        0.0930
     15 C         140.1461  140.3085  159.0897 C.3     1  UNL1        0.0427
     16 C         139.7843  140.7494  160.4770 C.3     1  UNL1        0.0927
     17 N         140.0171  139.5949  161.4059 N.pl3   1  UNL1       -0.3033
     18 C         140.5228  138.4404  160.5926 C.3     1  UNL1        0.1104
     19 O         143.5310  138.4062  158.7154 O.2     1  UNL1       -0.2729
     20 C         142.5228  137.8050  157.7813 C.2     1  UNL1        0.2475
     21 N         141.0586  138.0426  158.0042 N.am    1  UNL1       -0.3026
     22 H         140.3970  137.6481  157.3912 H       1  UNL1        0.1495
     23 C         142.9789  136.9662  156.6244 C.3     1  UNL1        0.2153
     24 N         142.7308  135.4869  156.6267 N.ar    1  UNL1       -0.2013
     25 C         141.7976  134.7479  155.7140 C.ar    1  UNL1        0.2219
     26 N         141.8625  133.2911  156.0654 N.ar    1  UNL1       -0.1048
     27 N         142.8358  133.1297  157.1952 N.ar    1  UNL1       -0.0225
     28 N         143.3725  134.4867  157.5422 N.ar    1  UNL1       -0.0424
     29 C         139.7572  140.3871  169.7158 C.2     1  UNL1        0.0774
     30 O         140.4667  139.3925  170.5860 O.co2   1  UNL1       -0.5444
     31 O         138.8156  141.3817  170.3276 O.co2   1  UNL1       -0.5444
     32 C         142.4870  141.9727  165.5886 C.3     1  UNL1        0.0857
     33 C         143.9389  142.0943  165.2319 C.3     1  UNL1        0.0245
     34 C         142.9972  143.2242  164.9379 C.3     1  UNL1        0.0245
@<TRIPOS>UNITY_ATOM_ATTR
30 1
charge -1
@<TRIPOS>BOND
     1    19    20    2
     2    20    23    1
     3    23    24    1
     4    24    25   ar
     5    25    26   ar
     6    26    27   ar
     7    27    28   ar
     8    20    21   am
     9    21    14    1
    10    14    15    1
    11    15    16    1
    12    16    17    1
    13    17     1    1
    14     1     2   ar
    15     2     3    1
    16     2     4   ar
    17     4     5   ar
    18     5     6   ar
    19     6     7    2
    20     6     8   ar
    21     8    29    1
    22    29    30   ar
    23    29    31   ar
    24     8     9   ar
    25     9    10   ar
    26    10    32    1
    27    32    33    1
    28    33    34    1
    29    10    11   ar
    30    11    12   ar
    31    12    13    1
    32    17    18    1
    33    28    24   ar
    34    18    14    1
    35    12     1   ar
    36    11     5   ar
    37    34    32    1
    38    21    22    1
@<TRIPOS>MOLECULE
*****
 34 38 0 0 0
SMALL
GASTEIGER

@<TRIPOS>ATOM
      1 C         142.7492  141.6073  164.2921 C.ar    1  UNL1        0.0878
      2 C         143.7794  142.3662  165.0747 C.ar    1  UNL1        0.1543
      3 F         144.9861  142.9256  164.3813 F       1  UNL1       -0.2028
      4 C         143.6030  142.5657  166.5509 C.ar    1  UNL1        0.0356
      5 C         142.3962  142.0063  167.2443 C.ar    1  UNL1        0.0580
      6 C         142.2198  142.2059  168.7206 C.ar    1  UNL1        0.1996
      7 O         143.2501  142.9648  169.5032 O.2     1  UNL1       -0.2864
      8 C         141.0131  141.6465  169.4140 C.ar    1  UNL1        0.0701
      9 C         139.9828  140.8876  168.6313 C.ar    1  UNL1        0.0801
     10 N         140.1593  140.6881  167.1552 N.ar    1  UNL1       -0.3270
     11 C         141.3660  141.2474  166.4617 C.ar    1  UNL1        0.0750
     12 C         141.5424  141.0480  164.9856 C.ar    1  UNL1        0.0890
     13 CL        140.5122  140.2890  164.2028 Cl      1  UNL1       -0.0794
     14 C         143.1044  140.3617  160.6331 C.3     1  UNL1        0.0930
     15 C         143.2897  141.8397  160.4555 C.3     1  UNL1        0.0427
     16 C         143.1791  142.4861  161.8045 C.3     1  UNL1        0.0927
     17 N         142.9256  141.4078  162.8159 N.pl3   1  UNL1       -0.3033
     18 C         142.8794  140.0949  162.0919 C.3     1  UNL1        0.1104
     19 O         140.5457  139.4070  159.3916 O.2     1  UNL1       -0.2729
     20 C         141.8589  138.8542  158.9225 C.2     1  UNL1        0.2475
     21 N         143.1383  139.3316  159.5433 N.am    1  UNL1       -0.3026
     22 H         144.0002  138.9688  159.2355 H       1  UNL1        0.1495
     23 C         141.8927  137.8241  157.8327 C.3     1  UNL1        0.2153
     24 N         143.0839  137.7305  156.9259 N.ar    1  UNL1       -0.2013
     25 C         143.5251  136.5106  156.1729 C.ar    1  UNL1        0.2219
     26 N         144.7569  136.8666  155.3945 N.ar    1  UNL1       -0.1048
     27 N         145.0770  138.3065  155.6663 N.ar    1  UNL1       -0.0225
     28 N         144.0431  138.8405  156.6128 N.ar    1  UNL1       -0.0424
     29 C         140.8366  141.8460  170.8902 C.2     1  UNL1        0.0774
     30 O         139.7798  142.7806  171.3997 O.co2   1  UNL1       -0.5444
     31 O         141.7170  141.1108  171.8569 O.co2   1  UNL1       -0.5444
     32 C         139.1290  139.9292  166.3725 C.3     1  UNL1        0.0857
     33 C         138.0306  139.9060  165.3512 C.3     1  UNL1        0.0245
     34 C         138.4429  138.6379  166.0382 C.3     1  UNL1        0.0245
@<TRIPOS>UNITY_ATOM_ATTR
30 1
charge -1
@<TRIPOS>BOND
     1    19    20    2
     2    20    23    1
     3    23    24    1
     4    24    25   ar
     5    25    26   ar
     6    26    27   ar
     7    27    28   ar
     8    20    21   am
     9    21    14    1
    10    14    15    1
    11    15    16    1
    12    16    17    1
    13    17     1    1
    14     1     2   ar
    15     2     3    1
    16     2     4   ar
    17     4     5   ar
    18     5     6   ar
    19     6     7    2
    20     6     8   ar
    21     8    29    1
    22    29    30   ar
    23    29    31   ar
    24     8     9   ar
    25     9    10   ar
    26    10    32    1
    27    32    33    1
    28    33    34    1
    29    10    11   ar
    30    11    12   ar
    31    12    13    1
    32    17    18    1
    33    28    24   ar
    34    18    14    1
    35    12     1   ar
    36    11     5   ar
    37    34    32    1
    38    21    22    1
@<TRIPOS>MOLECULE
*****
 34 38 0 0 0
SMALL
GASTEIGER

@<TRIPOS>ATOM
      1 C         139.2921  139.7344  163.7659 C.ar    1  UNL1        0.0878
      2 C         138.8752  138.7132  164.7824 C.ar    1  UNL1        0.1543
      3 F         138.3076  137.3986  164.3358 F       1  UNL1       -0.2028
      4 C         139.0260  139.0067  166.2457 C.ar    1  UNL1        0.0356
      5 C         139.5937  140.3213  166.6923 C.ar    1  UNL1        0.0580
      6 C         139.7445  140.6148  168.1556 C.ar    1  UNL1        0.1996
      7 O         139.3276  139.5937  169.1722 O.2     1  UNL1       -0.2864
      8 C         140.3121  141.9294  168.6023 C.ar    1  UNL1        0.0701
      9 C         140.7290  142.9506  167.5856 C.ar    1  UNL1        0.0801
     10 N         140.5782  142.6571  166.1224 N.ar    1  UNL1       -0.3270
     11 C         140.0105  141.3425  165.6758 C.ar    1  UNL1        0.0750
     12 C         139.8597  141.0490  164.2125 C.ar    1  UNL1        0.0890
     13 CL        140.2766  142.0702  163.1959 Cl      1  UNL1       -0.0794
     14 C         138.4031  139.5398  159.9926 C.3     1  UNL1        0.0930
     15 C         139.4153  138.4389  160.1091 C.3     1  UNL1        0.0427
     16 C         139.8715  138.3778  161.5367 C.3     1  UNL1        0.0927
     17 N         139.1413  139.4409  162.3026 N.pl3   1  UNL1       -0.3033
     18 C         138.2337  140.1590  161.3483 C.3     1  UNL1        0.1104
     19 O         139.0201  142.1788  158.7060 O.2     1  UNL1       -0.2729
     20 C         137.9946  141.2690  158.0970 C.2     1  UNL1        0.2475
     21 N         137.6861  139.9495  158.7403 N.am    1  UNL1       -0.3026
     22 H         137.0131  139.3524  158.3407 H       1  UNL1        0.1495
     23 C         137.2777  141.6786  156.8448 C.3     1  UNL1        0.2153
     24 N         136.2815  140.7517  156.2135 N.ar    1  UNL1       -0.2013
     25 C         136.2886  140.2891  154.7867 C.ar    1  UNL1        0.2219
     26 N         135.1148  139.3762  154.5896 N.ar    1  UNL1       -0.1048
     27 N         134.3823  139.2747  155.8945 N.ar    1  UNL1       -0.0225
     28 N         135.1033  140.1248  156.8982 N.ar    1  UNL1       -0.0424
     29 C         140.4630  142.2229  170.0655 C.2     1  UNL1        0.0774
     30 O         141.4373  141.4367  170.8917 O.co2   1  UNL1       -0.5444
     31 O         139.6394  143.3027  170.7027 O.co2   1  UNL1       -0.5444
     32 C         140.9951  143.6783  165.1058 C.3     1  UNL1        0.0857
     33 C         140.6515  144.8176  164.1927 C.3     1  UNL1        0.0245
     34 C         142.0606  144.3076  164.2582 C.3     1  UNL1        0.0245
@<TRIPOS>UNITY_ATOM_ATTR
30 1
charge -1
@<TRIPOS>BOND
     1    19    20    2
     2    20    23    1
     3    23    24    1
     4    24    25   ar
     5    25    26   ar
     6    26    27   ar
     7    27    28   ar
     8    20    21   am
     9    21    14    1
    10    14    15    1
    11    15    16    1
    12    16    17    1
    13    17     1    1
    14     1     2   ar
    15     2     3    1
    16     2     4   ar
    17     4     5   ar
    18     5     6   ar
    19     6     7    2
    20     6     8   ar
    21     8    29    1
    22    29    30   ar
    23    29    31   ar
    24     8     9   ar
    25     9    10   ar
    26    10    32    1
    27    32    33    1
    28    33    34    1
    29    10    11   ar
    30    11    12   ar
    31    12    13    1
    32    17    18    1
    33    28    24   ar
    34    18    14    1
    35    12     1   ar
    36    11     5   ar
    37    34    32    1
    38    21    22    1
@<TRIPOS>MOLECULE
*****
 34 38 0 0 0
SMALL
GASTEIGER

@<TRIPOS>ATOM
      1 C         142.1129  142.3882  163.8254 C.ar    1  UNL1        0.0878
      2 C         143.2118  143.1683  164.4841 C.ar    1  UNL1        0.1543
      3 F         144.0332  144.1322  163.6802 F       1  UNL1       -0.2028
      4 C         143.4893  142.9844  165.9466 C.ar    1  UNL1        0.0356
      5 C         142.6679  142.0205  166.7505 C.ar    1  UNL1        0.0580
      6 C         142.9455  141.8367  168.2132 C.ar    1  UNL1        0.1996
      7 O         144.0444  142.6167  168.8718 O.2     1  UNL1       -0.2864
      8 C         142.1241  140.8728  169.0170 C.ar    1  UNL1        0.0701
      9 C         141.0252  140.0927  168.3583 C.ar    1  UNL1        0.0801
     10 N         140.7476  140.2765  166.8957 N.ar    1  UNL1       -0.3270
     11 C         141.5690  141.2404  166.0918 C.ar    1  UNL1        0.0750
     12 C         141.2915  141.4243  164.6293 C.ar    1  UNL1        0.0890
     13 CL        140.1926  140.6442  163.9705 Cl      1  UNL1       -0.0794
     14 C         140.9704  143.4434  160.2691 C.3     1  UNL1        0.0930
     15 C         141.8460  142.2666  159.9550 C.3     1  UNL1        0.0427
     16 C         142.3805  141.7281  161.2490 C.3     1  UNL1        0.0927
     17 N         141.8353  142.5720  162.3627 N.pl3   1  UNL1       -0.3033
     18 C         140.9638  143.6322  161.7571 C.3     1  UNL1        0.1104
     19 O         142.4673  145.3921  158.5481 O.2     1  UNL1       -0.2729
     20 C         140.9796  145.2582  158.4099 C.2     1  UNL1        0.2475
     21 N         140.2312  144.2838  159.2705 N.am    1  UNL1       -0.3026
     22 H         139.2548  144.1959  159.1798 H       1  UNL1        0.1495
     23 C         140.2405  146.0986  157.4113 C.3     1  UNL1        0.2153
     24 N         139.2298  145.4664  156.5008 N.ar    1  UNL1       -0.2013
     25 C         138.5123  146.1463  155.3726 C.ar    1  UNL1        0.2219
     26 N         137.5983  145.1435  154.7332 N.ar    1  UNL1       -0.1048
     27 N         137.7510  143.8437  155.4662 N.ar    1  UNL1       -0.0225
     28 N         138.7593  144.0433  156.5586 N.ar    1  UNL1       -0.0424
     29 C         142.4016  140.6889  170.4796 C.2     1  UNL1        0.0774
     30 O         143.4600  139.7246  170.9267 O.co2   1  UNL1       -0.5444
     31 O         141.6207  141.4694  171.4951 O.co2   1  UNL1       -0.5444
     32 C         139.6488  139.4965  166.2370 C.3     1  UNL1        0.0857
     33 C         138.1965  139.3276  165.9017 C.3     1  UNL1        0.0245
     34 C         139.1976  138.3143  165.4315 C.3     1  UNL1        0.0245
@<TRIPOS>UNITY_ATOM_ATTR
30 1
charge -1
@<TRIPOS>BOND
     1    19    20    2
     2    20    23    1
     3    23    24    1
     4    24    25   ar
     5    25    26   ar
     6    26    27   ar
     7    27    28   ar
     8    20    21   am
     9    21    14    1
    10    14    15    1
    11    15    16    1
    12    16    17    1
    13    17     1    1
    14     1     2   ar
    15     2     3    1
    16     2     4   ar
    17     4     5   ar
    18     5     6   ar
    19     6     7    2
    20     6     8   ar
    21     8    29    1
    22    29    30   ar
    23    29    31   ar
    24     8     9   ar
    25     9    10   ar
    26    10    32    1
    27    32    33    1
    28    33    34    1
    29    10    11   ar
    30    11    12   ar
    31    12    13    1
    32    17    18    1
    33    28    24   ar
    34    18    14    1
    35    12     1   ar
    36    11     5   ar
    37    34    32    1
    38    21    22    1
@<TRIPOS>MOLECULE
*****
 34 38 0 0 0
SMALL
GASTEIGER

@<TRIPOS>ATOM
      1 C         140.2551  139.4806  164.4275 C.ar    1  UNL1        0.0878
      2 C         139.2478  138.7832  165.2929 C.ar    1  UNL1        0.1543
      3 F         138.3937  137.6917  164.7193 F       1  UNL1       -0.2028
      4 C         139.0946  139.1774  166.7320 C.ar    1  UNL1        0.0356
      5 C         139.9487  140.2689  167.3057 C.ar    1  UNL1        0.0580
      6 C         139.7955  140.6631  168.7449 C.ar    1  UNL1        0.1996
      7 O         138.7883  139.9658  169.6104 O.2     1  UNL1       -0.2864
      8 C         140.6496  141.7546  169.3186 C.ar    1  UNL1        0.0701
      9 C         141.6570  142.4520  168.4530 C.ar    1  UNL1        0.0801
     10 N         141.8101  142.0578  167.0139 N.ar    1  UNL1       -0.3270
     11 C         140.9560  140.9663  166.4402 C.ar    1  UNL1        0.0750
     12 C         141.1092  140.5721  165.0011 C.ar    1  UNL1        0.0890
     13 CL        142.1165  141.2694  164.1356 Cl      1  UNL1       -0.0794
     14 C         140.0782  138.9362  160.5884 C.3     1  UNL1        0.0930
     15 C         141.2097  138.0236  160.9588 C.3     1  UNL1        0.0427
     16 C         141.4136  138.1165  162.4420 C.3     1  UNL1        0.0927
     17 N         140.4083  139.0864  162.9883 N.pl3   1  UNL1       -0.3033
     18 C         139.5829  139.5930  161.8427 C.3     1  UNL1        0.1104
     19 O         141.2417  141.0802  158.8422 O.2     1  UNL1       -0.2729
     20 C         140.1188  140.2257  158.3333 C.2     1  UNL1        0.2475
     21 N         139.5371  139.1536  159.2065 N.am    1  UNL1       -0.3026
     22 H         138.8001  138.5928  158.8725 H       1  UNL1        0.1495
     23 C         139.5777  140.4431  156.9513 C.3     1  UNL1        0.2153
     24 N         138.9203  139.3125  156.2168 N.ar    1  UNL1       -0.2013
     25 C         137.9386  139.4453  155.0905 C.ar    1  UNL1        0.2219
     26 N         137.5409  138.0655  154.6572 N.ar    1  UNL1       -0.1048
     27 N         138.2767  137.0799  155.5156 N.ar    1  UNL1       -0.0225
     28 N         139.1293  137.8506  156.4795 N.ar    1  UNL1       -0.0424
     29 C         140.4965  142.1488  170.7577 C.2     1  UNL1        0.0774
     30 O         139.4292  143.1235  171.1588 O.co2   1  UNL1       -0.5444
     31 O         141.4106  141.5683  171.7957 O.co2   1  UNL1       -0.5444
     32 C         142.8174  142.7551  166.1484 C.3     1  UNL1        0.0857
     33 C         143.1369  143.7330  165.0568 C.3     1  UNL1        0.0245
     34 C         144.2425  142.9851  165.7410 C.3     1  UNL1        0.0245
@<TRIPOS>UNITY_ATOM_ATTR
30 1
charge -1
@<TRIPOS>BOND
     1    19    20    2
     2    20    23    1
     3    23    24    1
     4    24    25   ar
     5    25    26   ar
     6    26    27   ar
     7    27    28   ar
     8    20    21   am
     9    21    14    1
    10    14    15    1
    11    15    16    1
    12    16    17    1
    13    17     1    1
    14     1     2   ar
    15     2     3    1
    16     2     4   ar
    17     4     5   ar
    18     5     6   ar
    19     6     7    2
    20     6     8   ar
    21     8    29    1
    22    29    30   ar
    23    29    31   ar
    24     8     9   ar
    25     9    10   ar
    26    10    32    1
    27    32    33    1
    28    33    34    1
    29    10    11   ar
    30    11    12   ar
    31    12    13    1
    32    17    18    1
    33    28    24   ar
    34    18    14    1
    35    12     1   ar
    36    11     5   ar
    37    34    32    1
    38    21    22    1
@<TRIPOS>MOLECULE
*****
 34 38 0 0 0
SMALL
GASTEIGER

@<TRIPOS>ATOM
      1 C         142.2448  142.4140  163.8424 C.ar    1  UNL1        0.0878
      2 C         143.3291  143.1802  164.5402 C.ar    1  UNL1        0.1543
      3 F         144.1733  144.1534  163.7719 F       1  UNL1       -0.2028
      4 C         143.5692  142.9733  166.0063 C.ar    1  UNL1        0.0356
      5 C         142.7250  142.0002  166.7746 C.ar    1  UNL1        0.0580
      6 C         142.9651  141.7933  168.2407 C.ar    1  UNL1        0.1996
      7 O         144.0495  142.5595  168.9386 O.2     1  UNL1       -0.2864
      8 C         142.1209  140.8202  169.0090 C.ar    1  UNL1        0.0701
      9 C         141.0365  140.0539  168.3111 C.ar    1  UNL1        0.0801
     10 N         140.7964  140.2608  166.8450 N.ar    1  UNL1       -0.3270
     11 C         141.6406  141.2339  166.0767 C.ar    1  UNL1        0.0750
     12 C         141.4005  141.4408  164.6106 C.ar    1  UNL1        0.0890
     13 CL        140.3161  140.6746  163.9127 Cl      1  UNL1       -0.0794
     14 C         142.0748  142.3516  159.9651 C.3     1  UNL1        0.0930
     15 C         141.1954  143.5267  160.2750 C.3     1  UNL1        0.0427
     16 C         141.1521  143.6931  161.7651 C.3     1  UNL1        0.0927
     17 N         142.0046  142.6208  162.3762 N.pl3   1  UNL1       -0.3033
     18 C         142.5748  141.7918  161.2638 C.3     1  UNL1        0.1104
     19 O         144.8542  142.6277  158.8704 O.2     1  UNL1       -0.2729
     20 C         143.7871  141.9662  158.0495 C.2     1  UNL1        0.2475
     21 N         142.3973  141.8282  158.5969 N.am    1  UNL1       -0.3026
     22 H         141.6969  141.3941  158.0582 H       1  UNL1        0.1495
     23 C         144.1096  141.4429  156.6813 C.3     1  UNL1        0.2153
     24 N         144.1661  139.9638  156.4381 N.ar    1  UNL1       -0.2013
     25 C         143.1598  138.9544  156.9055 C.ar    1  UNL1        0.2219
     26 N         143.6106  137.6012  156.4411 N.ar    1  UNL1       -0.1048
     27 N         144.8954  137.7743  155.6868 N.ar    1  UNL1       -0.0225
     28 N         145.2388  139.2344  155.6849 N.ar    1  UNL1       -0.0424
     29 C         142.3610  140.6133  170.4751 C.2     1  UNL1        0.0774
     30 O         143.4444  139.6828  170.9337 O.co2   1  UNL1       -0.5444
     31 O         141.5176  141.3369  171.4827 O.co2   1  UNL1       -0.5444
     32 C         139.7120  139.4945  166.1472 C.3     1  UNL1        0.0857
     33 C         139.2690  138.3012  165.3537 C.3     1  UNL1        0.0245
     34 C         138.2769  139.3607  165.7320 C.3     1  UNL1        0.0245
@<TRIPOS>UNITY_ATOM_ATTR
30 1
charge -1
@<TRIPOS>BOND
     1    19    20    2
     2    20    23    1
     3    23    24    1
     4    24    25   ar
     5    25    26   ar
     6    26    27   ar
     7    27    28   ar
     8    20    21   am
     9    21    14    1
    10    14    15    1
    11    15    16    1
    12    16    17    1
    13    17     1    1
    14     1     2   ar
    15     2     3    1
    16     2     4   ar
    17     4     5   ar
    18     5     6   ar
    19     6     7    2
    20     6     8   ar
    21     8    29    1
    22    29    30   ar
    23    29    31   ar
    24     8     9   ar
    25     9    10   ar
    26    10    32    1
    27    32    33    1
    28    33    34    1
    29    10    11   ar
    30    11    12   ar
    31    12    13    1
    32    17    18    1
    33    28    24   ar
    34    18    14    1
    35    12     1   ar
    36    11     5   ar
    37    34    32    1
    38    21    22    1
@<TRIPOS>MOLECULE
*****
 34 38 0 0 0
SMALL
GASTEIGER

@<TRIPOS>ATOM
      1 C         139.2233  139.5216  164.4106 C.ar    1  UNL1        0.0878
      2 C         138.9632  138.5393  165.5139 C.ar    1  UNL1        0.1543
      3 F         138.5352  137.1395  165.1863 F       1  UNL1       -0.2028
      4 C         139.1310  138.9568  166.9448 C.ar    1  UNL1        0.0356
      5 C         139.5590  140.3566  167.2723 C.ar    1  UNL1        0.0580
      6 C         139.7268  140.7741  168.7033 C.ar    1  UNL1        0.1996
      7 O         139.4667  139.7918  169.8066 O.2     1  UNL1       -0.2864
      8 C         140.1547  142.1740  169.0309 C.ar    1  UNL1        0.0701
      9 C         140.4148  143.1563  167.9275 C.ar    1  UNL1        0.0801
     10 N         140.2470  142.7388  166.4966 N.ar    1  UNL1       -0.3270
     11 C         139.8191  141.3390  166.1690 C.ar    1  UNL1        0.0750
     12 C         139.6512  140.9215  164.7382 C.ar    1  UNL1        0.0890
     13 CL        139.9113  141.9038  163.6348 Cl      1  UNL1       -0.0794
     14 C         139.5415  138.4000  160.7083 C.3     1  UNL1        0.0930
     15 C         138.0530  138.5235  160.8469 C.3     1  UNL1        0.0427
     16 C         137.7526  138.9587  162.2506 C.3     1  UNL1        0.0927
     17 N         139.0554  139.1042  162.9796 N.pl3   1  UNL1       -0.3033
     18 C         140.1610  138.7589  162.0264 C.3     1  UNL1        0.1104
     19 O         141.0251  140.4510  159.0983 O.2     1  UNL1       -0.2729
     20 C         141.0225  139.0151  158.6642 C.2     1  UNL1        0.2475
     21 N         140.2807  137.9896  159.4693 N.am    1  UNL1       -0.3026
     22 H         140.2789  137.0473  159.1844 H       1  UNL1        0.1495
     23 C         141.7616  138.6048  157.4252 C.3     1  UNL1        0.2153
     24 N         142.9750  139.3704  156.9875 N.ar    1  UNL1       -0.2013
     25 C         143.2007  139.9632  155.6283 C.ar    1  UNL1        0.2219
     26 N         144.5409  140.6368  155.6330 N.ar    1  UNL1       -0.1048
     27 N         145.1436  140.4603  156.9952 N.ar    1  UNL1       -0.0225
     28 N         144.1758  139.6776  157.8323 N.ar    1  UNL1       -0.0424
     29 C         140.3226  142.5915  170.4618 C.2     1  UNL1        0.0774
     30 O         141.6254  142.3511  171.1653 O.co2   1  UNL1       -0.5444
     31 O         139.1876  143.2494  171.1892 O.co2   1  UNL1       -0.5444
     32 C         140.5071  143.7212  165.3933 C.3     1  UNL1        0.0857
     33 C         140.0167  144.7943  164.4672 C.3     1  UNL1        0.0245
     34 C         141.4480  144.3495  164.4085 C.3     1  UNL1        0.0245
@<TRIPOS>UNITY_ATOM_ATTR
30 1
charge -1
@<TRIPOS>BOND
     1    19    20    2
     2    20    23    1
     3    23    24    1
     4    24    25   ar
     5    25    26   ar
     6    26    27   ar
     7    27    28   ar
     8    20    21   am
     9    21    14    1
    10    14    15    1
    11    15    16    1
    12    16    17    1
    13    17     1    1
    14     1     2   ar
    15     2     3    1
    16     2     4   ar
    17     4     5   ar
    18     5     6   ar
    19     6     7    2
    20     6     8   ar
    21     8    29    1
    22    29    30   ar
    23    29    31   ar
    24     8     9   ar
    25     9    10   ar
    26    10    32    1
    27    32    33    1
    28    33    34    1
    29    10    11   ar
    30    11    12   ar
    31    12    13    1
    32    17    18    1
    33    28    24   ar
    34    18    14    1
    35    12     1   ar
    36    11     5   ar
    37    34    32    1
    38    21    22    1
@<TRIPOS>MOLECULE
*****
 34 38 0 0 0
SMALL
GASTEIGER

@<TRIPOS>ATOM
      1 C         141.7940  142.2652  163.8237 C.ar    1  UNL1        0.0878
      2 C         142.9106  143.0664  164.4246 C.ar    1  UNL1        0.1543
      3 F         143.6811  144.0336  163.5755 F       1  UNL1       -0.2028
      4 C         143.2567  142.9005  165.8746 C.ar    1  UNL1        0.0356
      5 C         142.4863  141.9334  166.7237 C.ar    1  UNL1        0.0580
      6 C         142.8324  141.7676  168.1738 C.ar    1  UNL1        0.1996
      7 O         143.9490  142.5688  168.7747 O.2     1  UNL1       -0.2864
      8 C         142.0619  140.8004  169.0230 C.ar    1  UNL1        0.0701
      9 C         140.9453  139.9991  168.4220 C.ar    1  UNL1        0.0801
     10 N         140.5992  140.1650  166.9719 N.ar    1  UNL1       -0.3270
     11 C         141.3697  141.1322  166.1228 C.ar    1  UNL1        0.0750
     12 C         141.0235  141.2980  164.6728 C.ar    1  UNL1        0.0890
     13 CL        139.9069  140.4968  164.0718 Cl      1  UNL1       -0.0794
     14 C         141.3012  142.0642  159.9789 C.3     1  UNL1        0.0930
     15 C         140.5292  143.3082  160.3054 C.3     1  UNL1        0.0427
     16 C         140.6199  143.5349  161.7854 C.3     1  UNL1        0.0927
     17 N         141.4478  142.4310  162.3736 N.pl3   1  UNL1       -0.3033
     18 C         141.8689  141.5221  161.2570 C.3     1  UNL1        0.1104
     19 O         139.2178  140.2076  158.8776 O.2     1  UNL1       -0.2729
     20 C         140.4332  140.5388  158.0631 C.2     1  UNL1        0.2475
     21 N         141.4748  141.4671  158.6138 N.am    1  UNL1       -0.3026
     22 H         142.2725  141.6845  158.0793 H       1  UNL1        0.1495
     23 C         140.6068  139.9418  156.6981 C.3     1  UNL1        0.2153
     24 N         139.5744  138.9988  156.1550 N.ar    1  UNL1       -0.2013
     25 C         139.6964  137.5057  156.0804 C.ar    1  UNL1        0.2219
     26 N         138.4361  136.9675  155.4705 N.ar    1  UNL1       -0.1048
     27 N         137.5352  138.1280  155.1682 N.ar    1  UNL1       -0.0225
     28 N         138.2387  139.3835  155.5912 N.ar    1  UNL1       -0.0424
     29 C         142.4081  140.6345  170.4730 C.2     1  UNL1        0.0774
     30 O         141.7105  141.4638  171.5102 O.co2   1  UNL1       -0.5444
     31 O         143.4518  139.6394  170.8859 O.co2   1  UNL1       -0.5444
     32 C         139.4826  139.3638  166.3710 C.3     1  UNL1        0.0857
     33 C         139.0084  138.1506  165.6270 C.3     1  UNL1        0.0245
     34 C         138.0227  139.1890  166.0742 C.3     1  UNL1        0.0245
@<TRIPOS>UNITY_ATOM_ATTR
30 1
charge -1
@<TRIPOS>BOND
     1    19    20    2
     2    20    23    1
     3    23    24    1
     4    24    25   ar
     5    25    26   ar
     6    26    27   ar
     7    27    28   ar
     8    20    21   am
     9    21    14    1
    10    14    15    1
    11    15    16    1
    12    16    17    1
    13    17     1    1
    14     1     2   ar
    15     2     3    1
    16     2     4   ar
    17     4     5   ar
    18     5     6   ar
    19     6     7    2
    20     6     8   ar
    21     8    29    1
    22    29    30   ar
    23    29    31   ar
    24     8     9   ar
    25     9    10   ar
    26    10    32    1
    27    32    33    1
    28    33    34    1
    29    10    11   ar
    30    11    12   ar
    31    12    13    1
    32    17    18    1
    33    28    24   ar
    34    18    14    1
    35    12     1   ar
    36    11     5   ar
    37    34    32    1
    38    21    22    1
@<TRIPOS>MOLECULE
*****
 34 38 0 0 0
SMALL
GASTEIGER

@<TRIPOS>ATOM
      1 C         143.0977  142.2992  163.6341 C.ar    1  UNL1        0.0878
      2 C         143.7491  143.3239  164.5148 C.ar    1  UNL1        0.1543
      3 F         144.3824  144.5407  163.9079 F       1  UNL1       -0.2028
      4 C         143.7671  143.1319  166.0023 C.ar    1  UNL1        0.0356
      5 C         143.1337  141.9151  166.6091 C.ar    1  UNL1        0.0580
      6 C         143.1517  141.7231  168.0967 C.ar    1  UNL1        0.1996
      7 O         143.8031  142.7478  168.9774 O.2     1  UNL1       -0.2864
      8 C         142.5183  140.5063  168.7036 C.ar    1  UNL1        0.0701
      9 C         141.8669  139.4815  167.8228 C.ar    1  UNL1        0.0801
     10 N         141.8489  139.6736  166.3353 N.ar    1  UNL1       -0.3270
     11 C         142.4823  140.8904  165.7285 C.ar    1  UNL1        0.0750
     12 C         142.4643  141.0824  164.2410 C.ar    1  UNL1        0.0890
     13 CL        141.8129  140.0577  163.3602 Cl      1  UNL1       -0.0794
     14 C         143.6580  142.3494  159.7936 C.3     1  UNL1        0.0930
     15 C         142.4459  143.2240  159.9212 C.3     1  UNL1        0.0427
     16 C         142.0885  143.3116  161.3753 C.3     1  UNL1        0.0927
     17 N         143.0796  142.4912  162.1465 N.pl3   1  UNL1       -0.3033
     18 C         144.0496  141.8966  161.1689 C.3     1  UNL1        0.1104
     19 O         143.2189  139.6548  158.5501 O.2     1  UNL1       -0.2729
     20 C         144.1363  140.6434  157.8934 C.2     1  UNL1        0.2475
     21 N         144.3558  141.9907  158.5152 N.am    1  UNL1       -0.3026
     22 H         144.9579  142.6396  158.0842 H       1  UNL1        0.1495
     23 C         144.8341  140.2847  156.6150 C.3     1  UNL1        0.2153
     24 N         145.8229  141.2354  156.0080 N.ar    1  UNL1       -0.2013
     25 C         146.1235  141.3802  154.5456 C.ar    1  UNL1        0.2219
     26 N         147.1711  142.4425  154.3906 N.ar    1  UNL1       -0.1048
     27 N         147.5179  142.9543  155.7572 N.ar    1  UNL1       -0.0225
     28 N         146.6847  142.2083  156.7568 N.ar    1  UNL1       -0.0424
     29 C         142.5363  140.3142  170.1911 C.2     1  UNL1        0.0774
     30 O         143.6062  139.4764  170.8263 O.co2   1  UNL1       -0.5444
     31 O         141.4845  140.9600  171.0435 O.co2   1  UNL1       -0.5444
     32 C         141.1975  138.6489  165.4547 C.3     1  UNL1        0.0857
     33 C         139.9765  138.1158  164.7655 C.3     1  UNL1        0.0245
     34 C         141.2903  137.4070  164.6185 C.3     1  UNL1        0.0245
@<TRIPOS>UNITY_ATOM_ATTR
30 1
charge -1
@<TRIPOS>BOND
     1    19    20    2
     2    20    23    1
     3    23    24    1
     4    24    25   ar
     5    25    26   ar
     6    26    27   ar
     7    27    28   ar
     8    20    21   am
     9    21    14    1
    10    14    15    1
    11    15    16    1
    12    16    17    1
    13    17     1    1
    14     1     2   ar
    15     2     3    1
    16     2     4   ar
    17     4     5   ar
    18     5     6   ar
    19     6     7    2
    20     6     8   ar
    21     8    29    1
    22    29    30   ar
    23    29    31   ar
    24     8     9   ar
    25     9    10   ar
    26    10    32    1
    27    32    33    1
    28    33    34    1
    29    10    11   ar
    30    11    12   ar
    31    12    13    1
    32    17    18    1
    33    28    24   ar
    34    18    14    1
    35    12     1   ar
    36    11     5   ar
    37    34    32    1
    38    21    22    1
