@<TRIPOS>MOLECULE
*****
 39 42 0 0 0
SMALL
GASTEIGER

@<TRIPOS>ATOM
      1 N         139.3171  139.7159  158.4339 N.am    1  UNL1       -0.2531
      2 C         139.2586  139.4527  159.9095 C.2     1  UNL1        0.3135
      3 O         139.6500  138.1085  160.4477 O.2     1  UNL1       -0.2518
      4 N         138.8088  140.5340  160.8469 N.am    1  UNL1       -0.2282
      5 C         138.4175  141.8783  160.3087 C.3     1  UNL1        0.1015
      6 C         137.9677  142.9594  161.2461 C.3     1  UNL1        0.0268
      7 C         137.9092  142.6963  162.7217 C.3     1  UNL1        0.0310
      8 C         138.3006  141.3520  163.2599 C.ar    1  UNL1        0.0096
      9 C         138.2421  141.0889  164.7355 C.ar    1  UNL1       -0.0025
     10 C         138.6335  139.7447  165.2737 C.ar    1  UNL1        0.0184
     11 CA        139.0833  138.6634  164.3363 C.ar    1  UNL1        0.1224
     12 N         139.1418  138.9265  162.8607 N.ar    1  UNL1       -0.2275
     13 C         138.7504  140.2709  162.3225 C.ar    1  UNL1        0.1345
     14 H         139.0602  140.5982  158.0807 H       1  UNL1        0.1578
     15 C         141.6107  137.0084  156.6567 C.ar    1  UNL1        0.1525
     16 C         141.1609  138.0895  157.5941 C.ar    1  UNL1        0.0721
     17 C         139.7669  138.6347  157.4966 C.ar    1  UNL1        0.1384
     18 N         138.8226  138.0986  156.4616 N.ar    1  UNL1       -0.2281
     19 C         139.2725  137.0174  155.5242 C.ar    1  UNL1        0.1136
     20 C         140.6665  136.4723  155.6218 C.ar    1  UNL1        0.1215
     21 C         141.1163  135.3911  154.6844 C.1     1  UNL1        0.1051
     22 N         141.5661  134.3099  153.7470 N.1     1  UNL1       -0.1907
     23 O         143.0047  136.4633  156.7542 O.3     1  UNL1       -0.4719
     24 C         143.3011  135.3236  157.6834 C.3     1  UNL1        0.2373
     25 C         143.7811  134.0131  157.1336 C.3     1  UNL1        0.1894
     26 C         145.2169  131.8656  157.4105 C.3     1  UNL1        0.1743
     27 O         144.5528  133.0702  158.0086 O.3     1  UNL1       -0.3471
     28 C         139.4747  137.3191  164.8745 C.2     1  UNL1        0.2529
     29 O         140.8551  136.7859  164.6291 O.2     1  UNL1       -0.2815
     30 C         138.5751  139.4816  166.7493 C.3     1  UNL1        0.1218
     31 N         139.5702  140.1284  167.6664 N.am    1  UNL1       -0.2739
     32 C         140.8726  140.7499  167.2569 C.3     1  UNL1        0.1101
     33 C         141.5451  141.2729  168.4915 C.3     1  UNL1        0.0866
     34 C         140.6583  140.9745  169.6641 C.3     1  UNL1        0.1029
     35 C         139.4379  140.2672  169.1541 C.2     1  UNL1        0.2273
     36 O         138.2871  139.7835  169.9858 O.2     1  UNL1       -0.2748
     37 N         142.8714  141.9715  168.5444 N.3     1  UNL1       -0.2696
     38 C         143.6077  142.0855  169.8462 C.3     1  UNL1        0.0897
     39 C         143.4613  142.5562  167.2953 C.3     1  UNL1        0.0897
@<TRIPOS>BOND
     1    26    27    1
     2    27    25    1
     3    25    24    1
     4    24    23    1
     5    23    15    1
     6    15    16   ar
     7    16    17   ar
     8    17     1    1
     9     1     2   am
    10     2     3    2
    11     2     4   am
    12     4     5    1
    13     5     6    1
    14     6     7    1
    15     7     8    1
    16     8     9   ar
    17     9    10   ar
    18    10    30    1
    19    30    31    1
    20    31    32    1
    21    32    33    1
    22    33    37    1
    23    37    38    1
    24    37    39    1
    25    33    34    1
    26    34    35    1
    27    35    36    2
    28    10    11   ar
    29    11    28    1
    30    28    29    2
    31    11    12   ar
    32    12    13   ar
    33    17    18   ar
    34    18    19   ar
    35    19    20   ar
    36    20    21    1
    37    21    22    3
    38    20    15   ar
    39    13     4    1
    40    13     8   ar
    41    35    31   am
    42     1    14    1
@<TRIPOS>MOLECULE
*****
 39 42 0 0 0
SMALL
GASTEIGER

@<TRIPOS>ATOM
      1 N         137.7608  140.2375  158.2782 N.am    1  UNL1       -0.2531
      2 C         138.1236  141.0101  159.5116 C.2     1  UNL1        0.3135
      3 O         138.1026  142.5098  159.4904 O.2     1  UNL1       -0.2518
      4 N         138.5074  140.2830  160.7663 N.am    1  UNL1       -0.2282
      5 C         138.5284  138.7834  160.7875 C.3     1  UNL1        0.1015
      6 C         138.9122  138.0564  162.0421 C.3     1  UNL1        0.0268
      7 C         139.2750  138.8290  163.2755 C.3     1  UNL1        0.0310
      8 C         139.2540  140.3287  163.2543 C.ar    1  UNL1        0.0096
      9 C         139.6168  141.1014  164.4878 C.ar    1  UNL1       -0.0025
     10 C         139.5959  142.6010  164.4666 C.ar    1  UNL1        0.0184
     11 CA        139.2121  143.3281  163.2119 C.ar    1  UNL1        0.1224
     12 N         138.8492  142.5555  161.9785 N.ar    1  UNL1       -0.2275
     13 C         138.8702  141.0557  161.9997 C.ar    1  UNL1        0.1345
     14 H         137.7745  139.2531  158.2921 H       1  UNL1        0.1578
     15 C         135.6013  141.5644  155.2244 C.ar    1  UNL1        0.1525
     16 C         135.9850  140.8374  156.4790 C.ar    1  UNL1        0.0721
     17 C         137.3770  140.9645  157.0236 C.ar    1  UNL1        0.1384
     18 N         138.3851  141.8185  156.3134 N.ar    1  UNL1       -0.2281
     19 C         138.0012  142.5456  155.0587 C.ar    1  UNL1        0.1136
     20 C         136.6093  142.4185  154.5143 C.ar    1  UNL1        0.1215
     21 C         136.2256  143.1455  153.2596 C.1     1  UNL1        0.1051
     22 N         135.8418  143.8726  152.0050 N.1     1  UNL1       -0.1907
     23 O         134.2094  141.4373  154.6799 O.3     1  UNL1       -0.4719
     24 C         133.0380  141.4031  155.6162 C.3     1  UNL1        0.2373
     25 C         132.5481  140.0925  156.1570 C.3     1  UNL1        0.1894
     26 C         133.2565  138.8852  158.3457 C.3     1  UNL1        0.1743
     27 O         132.4063  139.8979  157.6375 O.3     1  UNL1       -0.3471
     28 C         139.1911  144.8278  163.1907 C.2     1  UNL1        0.2529
     29 O         138.8199  145.5550  161.9323 O.2     1  UNL1       -0.2815
     30 C         139.9587  143.3737  165.7000 C.3     1  UNL1        0.1218
     31 N         140.8952  142.7787  166.7093 N.am    1  UNL1       -0.2739
     32 C         140.5403  142.3707  168.1085 C.3     1  UNL1        0.1101
     33 C         141.7768  141.8270  168.7607 C.3     1  UNL1        0.0866
     34 C         142.8960  141.8990  167.7645 C.3     1  UNL1        0.1029
     35 C         142.3512  142.4872  166.4968 C.2     1  UNL1        0.2273
     36 O         143.1262  142.7395  165.2376 O.2     1  UNL1       -0.2748
     37 N         141.8766  141.3034  170.1627 N.3     1  UNL1       -0.2696
     38 C         142.8237  140.1841  170.4796 C.3     1  UNL1        0.0897
     39 C         141.0294  141.8989  171.2478 C.3     1  UNL1        0.0897
@<TRIPOS>BOND
     1    26    27    1
     2    27    25    1
     3    25    24    1
     4    24    23    1
     5    23    15    1
     6    15    16   ar
     7    16    17   ar
     8    17     1    1
     9     1     2   am
    10     2     3    2
    11     2     4   am
    12     4     5    1
    13     5     6    1
    14     6     7    1
    15     7     8    1
    16     8     9   ar
    17     9    10   ar
    18    10    30    1
    19    30    31    1
    20    31    32    1
    21    32    33    1
    22    33    37    1
    23    37    38    1
    24    37    39    1
    25    33    34    1
    26    34    35    1
    27    35    36    2
    28    10    11   ar
    29    11    28    1
    30    28    29    2
    31    11    12   ar
    32    12    13   ar
    33    17    18   ar
    34    18    19   ar
    35    19    20   ar
    36    20    21    1
    37    21    22    3
    38    20    15   ar
    39    13     4    1
    40    13     8   ar
    41    35    31   am
    42     1    14    1
@<TRIPOS>MOLECULE
*****
 39 42 0 0 0
SMALL
GASTEIGER

@<TRIPOS>ATOM
      1 N         143.2533  138.8545  157.6140 N.am    1  UNL1       -0.2531
      2 C         142.3377  139.1550  158.7636 C.2     1  UNL1        0.3135
      3 O         141.1541  138.2729  159.0301 O.2     1  UNL1       -0.2518
      4 N         142.6058  140.3376  159.6466 N.am    1  UNL1       -0.2282
      5 C         143.7894  141.2196  159.3800 C.3     1  UNL1        0.1015
      6 C         144.0574  142.4022  160.2630 C.3     1  UNL1        0.0268
      7 C         143.1418  142.7026  161.4126 C.3     1  UNL1        0.0310
      8 C         141.9583  141.8206  161.6791 C.ar    1  UNL1        0.0096
      9 C         141.0427  142.1211  162.8287 C.ar    1  UNL1       -0.0025
     10 C         139.8592  141.2390  163.0953 C.ar    1  UNL1        0.0184
     11 CA        139.5911  140.0564  162.2122 C.ar    1  UNL1        0.1224
     12 N         140.5066  139.7559  161.0627 N.ar    1  UNL1       -0.2275
     13 C         141.6902  140.6380  160.7961 C.ar    1  UNL1        0.1345
     14 H         144.0301  139.4334  157.4390 H       1  UNL1        0.1578
     15 C         142.8671  135.0990  156.3905 C.ar    1  UNL1        0.1525
     16 C         143.1351  136.2815  157.2735 C.ar    1  UNL1        0.0721
     17 C         142.9852  137.6719  156.7310 C.ar    1  UNL1        0.1384
     18 N         142.5674  137.8798  155.3054 N.ar    1  UNL1       -0.2281
     19 C         142.2993  136.6971  154.4224 C.ar    1  UNL1        0.1136
     20 C         142.4492  135.3068  154.9650 C.ar    1  UNL1        0.1215
     21 C         142.1812  134.1243  154.0820 C.1     1  UNL1        0.1051
     22 N         141.9131  132.9417  153.1989 N.1     1  UNL1       -0.1907
     23 O         143.0169  133.7086  156.9331 O.3     1  UNL1       -0.4719
     24 C         144.1727  133.3735  157.8286 C.3     1  UNL1        0.2373
     25 C         144.9255  132.0908  157.6332 C.3     1  UNL1        0.1894
     26 C         144.6858  130.6838  155.4623 C.3     1  UNL1        0.1743
     27 O         145.4213  131.7125  156.2690 O.3     1  UNL1       -0.3471
     28 C         138.4075  139.1743  162.4788 C.2     1  UNL1        0.2529
     29 O         138.6082  137.8030  163.0527 O.2     1  UNL1       -0.2815
     30 C         138.9436  141.5395  164.2448 C.3     1  UNL1        0.1218
     31 N         139.4476  141.4304  165.6534 N.am    1  UNL1       -0.2739
     32 C         140.1905  142.4923  166.4087 C.3     1  UNL1        0.1101
     33 C         140.4993  141.9585  167.7761 C.3     1  UNL1        0.0866
     34 C         139.9471  140.5666  167.8658 C.3     1  UNL1        0.1029
     35 C         139.2972  140.2403  166.5539 C.2     1  UNL1        0.2273
     36 O         138.6163  138.9503  166.2040 O.2     1  UNL1       -0.2748
     37 N         141.2315  142.6883  168.8629 N.3     1  UNL1       -0.2696
     38 C         140.5046  143.6805  169.7215 C.3     1  UNL1        0.0897
     39 C         142.6907  142.4259  169.0910 C.3     1  UNL1        0.0897
@<TRIPOS>BOND
     1    26    27    1
     2    27    25    1
     3    25    24    1
     4    24    23    1
     5    23    15    1
     6    15    16   ar
     7    16    17   ar
     8    17     1    1
     9     1     2   am
    10     2     3    2
    11     2     4   am
    12     4     5    1
    13     5     6    1
    14     6     7    1
    15     7     8    1
    16     8     9   ar
    17     9    10   ar
    18    10    30    1
    19    30    31    1
    20    31    32    1
    21    32    33    1
    22    33    37    1
    23    37    38    1
    24    37    39    1
    25    33    34    1
    26    34    35    1
    27    35    36    2
    28    10    11   ar
    29    11    28    1
    30    28    29    2
    31    11    12   ar
    32    12    13   ar
    33    17    18   ar
    34    18    19   ar
    35    19    20   ar
    36    20    21    1
    37    21    22    3
    38    20    15   ar
    39    13     4    1
    40    13     8   ar
    41    35    31   am
    42     1    14    1
@<TRIPOS>MOLECULE
*****
 39 42 0 0 0
SMALL
GASTEIGER

@<TRIPOS>ATOM
      1 N         140.8367  138.5416  158.8650 N.am    1  UNL1       -0.2531
      2 C         141.4906  138.6260  160.2123 C.2     1  UNL1        0.3135
      3 O         142.9504  138.9541  160.3183 O.2     1  UNL1       -0.2518
      4 N         140.6846  138.3823  161.4537 N.am    1  UNL1       -0.2282
      5 C         139.2248  138.0542  161.3478 C.3     1  UNL1        0.1015
      6 C         138.4189  137.8105  162.5892 C.3     1  UNL1        0.0268
      7 C         139.0728  137.8950  163.9365 C.3     1  UNL1        0.0310
      8 C         140.5326  138.2231  164.0425 C.ar    1  UNL1        0.0096
      9 C         141.1865  138.3075  165.3898 C.ar    1  UNL1       -0.0025
     10 C         142.6463  138.6356  165.4957 C.ar    1  UNL1        0.0184
     11 CA        143.4523  138.8793  164.2543 C.ar    1  UNL1        0.1224
     12 N         142.7984  138.7948  162.9070 N.ar    1  UNL1       -0.2275
     13 C         141.3385  138.4667  162.8011 C.ar    1  UNL1        0.1345
     14 H         139.8786  138.3262  158.7955 H       1  UNL1        0.1578
     15 C         142.9072  137.8708  155.5464 C.ar    1  UNL1        0.1525
     16 C         142.1013  137.6272  156.7878 C.ar    1  UNL1        0.0721
     17 C         141.6426  138.7853  157.6236 C.ar    1  UNL1        0.1384
     18 N         141.9899  140.1870  157.2180 N.ar    1  UNL1       -0.2281
     19 C         142.7958  140.4306  155.9765 C.ar    1  UNL1        0.1136
     20 C         143.2545  139.2726  155.1407 C.ar    1  UNL1        0.1215
     21 C         144.0604  139.5162  153.8994 C.1     1  UNL1        0.1051
     22 N         144.8664  139.7600  152.6579 N.1     1  UNL1       -0.1907
     23 O         143.3658  136.7128  154.7107 O.3     1  UNL1       -0.4719
     24 C         142.5702  135.4414  154.6897 C.3     1  UNL1        0.2373
     25 C         142.8000  134.3954  155.7401 C.3     1  UNL1        0.1894
     26 C         144.1491  133.5111  157.7767 C.3     1  UNL1        0.1743
     27 O         143.9435  134.5356  156.7006 O.3     1  UNL1       -0.3471
     28 C         144.9121  139.2074  164.3602 C.2     1  UNL1        0.2529
     29 O         145.4353  140.4925  163.7903 O.2     1  UNL1       -0.2815
     30 C         143.3002  138.7200  166.8430 C.3     1  UNL1        0.1218
     31 N         142.6222  139.4550  167.9611 N.am    1  UNL1       -0.2739
     32 C         141.8419  140.7297  167.8328 C.3     1  UNL1        0.1101
     33 C         141.3428  141.1068  169.1961 C.3     1  UNL1        0.0866
     34 C         141.8147  140.0653  170.1670 C.3     1  UNL1        0.1029
     35 C         142.6054  139.0444  169.4036 C.2     1  UNL1        0.2273
     36 O         143.2636  137.8267  169.9815 O.2     1  UNL1       -0.2748
     37 N         140.5170  142.3137  169.5300 N.3     1  UNL1       -0.2696
     38 C         140.2664  143.3628  168.4876 C.3     1  UNL1        0.0897
     39 C         139.9416  142.4713  170.9062 C.3     1  UNL1        0.0897
@<TRIPOS>BOND
     1    26    27    1
     2    27    25    1
     3    25    24    1
     4    24    23    1
     5    23    15    1
     6    15    16   ar
     7    16    17   ar
     8    17     1    1
     9     1     2   am
    10     2     3    2
    11     2     4   am
    12     4     5    1
    13     5     6    1
    14     6     7    1
    15     7     8    1
    16     8     9   ar
    17     9    10   ar
    18    10    30    1
    19    30    31    1
    20    31    32    1
    21    32    33    1
    22    33    37    1
    23    37    38    1
    24    37    39    1
    25    33    34    1
    26    34    35    1
    27    35    36    2
    28    10    11   ar
    29    11    28    1
    30    28    29    2
    31    11    12   ar
    32    12    13   ar
    33    17    18   ar
    34    18    19   ar
    35    19    20   ar
    36    20    21    1
    37    21    22    3
    38    20    15   ar
    39    13     4    1
    40    13     8   ar
    41    35    31   am
    42     1    14    1
@<TRIPOS>MOLECULE
*****
 39 42 0 0 0
SMALL
GASTEIGER

@<TRIPOS>ATOM
      1 N         143.4023  137.8275  156.4258 N.am    1  UNL1       -0.2531
      2 C         142.9094  138.5677  157.6338 C.2     1  UNL1        0.3135
      3 O         141.8458  137.9631  158.5016 O.2     1  UNL1       -0.2518
      4 N         143.4800  139.9127  157.9738 N.am    1  UNL1       -0.2282
      5 C         144.5436  140.5173  157.1060 C.3     1  UNL1        0.1015
      6 C         145.1142  141.8622  157.4461 C.3     1  UNL1        0.0268
      7 C         144.6212  142.6024  158.6540 C.3     1  UNL1        0.0310
      8 C         143.5577  141.9977  159.5219 C.ar    1  UNL1        0.0096
      9 C         143.0647  142.7379  160.7298 C.ar    1  UNL1       -0.0025
     10 C         142.0012  142.1332  161.5976 C.ar    1  UNL1        0.0184
     11 CA        141.4305  140.7883  161.2576 C.ar    1  UNL1        0.1224
     12 N         141.9235  140.0481  160.0496 N.ar    1  UNL1       -0.2275
     13 C         142.9871  140.6529  159.1818 C.ar    1  UNL1        0.1345
     14 H         144.1004  138.2244  155.8562 H       1  UNL1        0.1578
     15 C         142.6178  133.9401  156.5753 C.ar    1  UNL1        0.1525
     16 C         143.1884  135.2850  156.9154 C.ar    1  UNL1        0.0721
     17 C         142.8317  136.4827  156.0857 C.ar    1  UNL1        0.1384
     18 N         141.9044  136.3354  154.9159 N.ar    1  UNL1       -0.2281
     19 C         141.3338  134.9905  154.5758 C.ar    1  UNL1        0.1136
     20 C         141.6905  133.7929  155.4055 C.ar    1  UNL1        0.1215
     21 C         141.1199  132.4480  155.0654 C.1     1  UNL1        0.1051
     22 N         140.5492  131.1031  154.7253 N.1     1  UNL1       -0.1907
     23 O         142.9745  132.7425  157.4050 O.3     1  UNL1       -0.4719
     24 C         144.4103  132.3357  157.5565 C.3     1  UNL1        0.2373
     25 C         145.1471  131.7383  156.3945 C.3     1  UNL1        0.1894
     26 C         143.8748  129.7007  155.4048 C.3     1  UNL1        0.1743
     27 O         144.3848  131.1047  155.2687 O.3     1  UNL1       -0.3471
     28 C         140.3670  140.1837  162.1254 C.2     1  UNL1        0.2529
     29 O         140.7417  139.2071  163.2006 O.2     1  UNL1       -0.2815
     30 C         141.5083  142.8734  162.8056 C.3     1  UNL1        0.1218
     31 N         142.2218  142.7284  164.1170 N.am    1  UNL1       -0.2739
     32 C         141.7618  141.9073  165.2849 C.3     1  UNL1        0.1101
     33 C         142.7764  142.0505  166.3805 C.3     1  UNL1        0.0866
     34 C         143.8634  142.9602  165.8895 C.3     1  UNL1        0.1029
     35 C         143.5206  143.3792  164.4906 C.2     1  UNL1        0.2273
     36 O         144.3339  144.2891  163.6186 O.2     1  UNL1       -0.2748
     37 N         142.7148  141.3985  167.7299 N.3     1  UNL1       -0.2696
     38 C         142.7963  142.2358  168.9719 C.3     1  UNL1        0.0897
     39 C         142.5716  139.9092  167.8375 C.3     1  UNL1        0.0897
@<TRIPOS>BOND
     1    26    27    1
     2    27    25    1
     3    25    24    1
     4    24    23    1
     5    23    15    1
     6    15    16   ar
     7    16    17   ar
     8    17     1    1
     9     1     2   am
    10     2     3    2
    11     2     4   am
    12     4     5    1
    13     5     6    1
    14     6     7    1
    15     7     8    1
    16     8     9   ar
    17     9    10   ar
    18    10    30    1
    19    30    31    1
    20    31    32    1
    21    32    33    1
    22    33    37    1
    23    37    38    1
    24    37    39    1
    25    33    34    1
    26    34    35    1
    27    35    36    2
    28    10    11   ar
    29    11    28    1
    30    28    29    2
    31    11    12   ar
    32    12    13   ar
    33    17    18   ar
    34    18    19   ar
    35    19    20   ar
    36    20    21    1
    37    21    22    3
    38    20    15   ar
    39    13     4    1
    40    13     8   ar
    41    35    31   am
    42     1    14    1
@<TRIPOS>MOLECULE
*****
 39 42 0 0 0
SMALL
GASTEIGER

@<TRIPOS>ATOM
      1 N         142.9044  137.4335  155.7608 N.am    1  UNL1       -0.2531
      2 C         143.1679  138.0197  157.1161 C.2     1  UNL1        0.3135
      3 O         143.1908  137.1327  158.3254 O.2     1  UNL1       -0.2518
      4 N         143.4087  139.4931  157.2620 N.am    1  UNL1       -0.2282
      5 C         143.3858  140.3802  156.0527 C.3     1  UNL1        0.1015
      6 C         143.6265  141.8535  156.1986 C.3     1  UNL1        0.0268
      7 C         143.8901  142.4398  157.5539 C.3     1  UNL1        0.0310
      8 C         143.9129  141.5527  158.7633 C.ar    1  UNL1        0.0096
      9 C         144.1765  142.1390  160.1186 C.ar    1  UNL1       -0.0025
     10 C         144.1993  141.2519  161.3279 C.ar    1  UNL1        0.0184
     11 CA        143.9586  139.7785  161.1820 C.ar    1  UNL1        0.1224
     12 N         143.6950  139.1922  159.8267 N.ar    1  UNL1       -0.2275
     13 C         143.6722  140.0794  158.6173 C.ar    1  UNL1        0.1345
     14 H         142.8894  138.0157  154.9670 H       1  UNL1        0.1578
     15 C         143.5248  133.5137  155.7672 C.ar    1  UNL1        0.1525
     16 C         143.7655  134.9870  155.9132 C.ar    1  UNL1        0.0721
     17 C         142.6637  135.9602  155.6148 C.ar    1  UNL1        0.1384
     18 N         141.3211  135.4600  155.1705 N.ar    1  UNL1       -0.2281
     19 C         141.0804  133.9866  155.0245 C.ar    1  UNL1        0.1136
     20 C         142.1823  133.0135  155.3229 C.ar    1  UNL1        0.1215
     21 C         141.9415  131.5402  155.1769 C.1     1  UNL1        0.1051
     22 N         141.7008  130.0668  155.0310 N.1     1  UNL1       -0.1907
     23 O         144.6266  132.5406  156.0655 O.3     1  UNL1       -0.4719
     24 C         144.9770  132.2172  157.4877 C.3     1  UNL1        0.2373
     25 C         144.8713  130.8056  157.9838 C.3     1  UNL1        0.1894
     26 C         143.3772  128.8193  158.7403 C.3     1  UNL1        0.1743
     27 O         143.5401  130.1144  158.0014 O.3     1  UNL1       -0.3471
     28 C         143.9814  138.8914  162.3913 C.2     1  UNL1        0.2529
     29 O         142.8456  138.9288  163.3705 O.2     1  UNL1       -0.2815
     30 C         144.4628  141.8381  162.6832 C.3     1  UNL1        0.1218
     31 N         143.4483  142.7410  163.3200 N.am    1  UNL1       -0.2739
     32 C         142.2864  142.3057  164.1629 C.3     1  UNL1        0.1101
     33 C         141.5376  143.5334  164.5896 C.3     1  UNL1        0.0866
     34 C         142.2368  144.7275  164.0104 C.3     1  UNL1        0.1029
     35 C         143.4176  144.2377  163.2257 C.2     1  UNL1        0.2273
     36 O         144.3960  145.0943  162.4781 O.2     1  UNL1       -0.2748
     37 N         140.3059  143.5621  165.4452 N.3     1  UNL1       -0.2696
     38 C         140.2870  142.8350  166.7572 C.3     1  UNL1        0.0897
     39 C         139.0932  144.3177  164.9889 C.3     1  UNL1        0.0897
@<TRIPOS>BOND
     1    26    27    1
     2    27    25    1
     3    25    24    1
     4    24    23    1
     5    23    15    1
     6    15    16   ar
     7    16    17   ar
     8    17     1    1
     9     1     2   am
    10     2     3    2
    11     2     4   am
    12     4     5    1
    13     5     6    1
    14     6     7    1
    15     7     8    1
    16     8     9   ar
    17     9    10   ar
    18    10    30    1
    19    30    31    1
    20    31    32    1
    21    32    33    1
    22    33    37    1
    23    37    38    1
    24    37    39    1
    25    33    34    1
    26    34    35    1
    27    35    36    2
    28    10    11   ar
    29    11    28    1
    30    28    29    2
    31    11    12   ar
    32    12    13   ar
    33    17    18   ar
    34    18    19   ar
    35    19    20   ar
    36    20    21    1
    37    21    22    3
    38    20    15   ar
    39    13     4    1
    40    13     8   ar
    41    35    31   am
    42     1    14    1
@<TRIPOS>MOLECULE
*****
 39 42 0 0 0
SMALL
GASTEIGER

@<TRIPOS>ATOM
      1 N         144.0491  137.5376  155.6488 N.am    1  UNL1       -0.2531
      2 C         143.3539  138.6679  156.3483 C.2     1  UNL1        0.3135
      3 O         141.9594  138.4833  156.8690 O.2     1  UNL1       -0.2518
      4 N         144.0534  139.9828  156.5270 N.am    1  UNL1       -0.2282
      5 C         145.4479  140.1674  156.0062 C.3     1  UNL1        0.1015
      6 C         146.1473  141.4822  156.1850 C.3     1  UNL1        0.0268
      7 C         145.4522  142.6125  156.8845 C.3     1  UNL1        0.0310
      8 C         144.0577  142.4279  157.4052 C.ar    1  UNL1        0.0096
      9 C         143.3625  143.5582  158.1047 C.ar    1  UNL1       -0.0025
     10 C         141.9680  143.3736  158.6255 C.ar    1  UNL1        0.0184
     11 CA        141.2686  142.0587  158.4467 C.ar    1  UNL1        0.1224
     12 N         141.9637  140.9284  157.7472 N.ar    1  UNL1       -0.2275
     13 C         143.3583  141.1131  157.2265 C.ar    1  UNL1        0.1345
     14 H         144.9643  137.6588  155.3070 H       1  UNL1        0.1578
     15 C         142.7886  133.8372  156.3327 C.ar    1  UNL1        0.1525
     16 C         143.4880  135.1520  156.5114 C.ar    1  UNL1        0.0721
     17 C         143.3497  136.2228  155.4701 C.ar    1  UNL1        0.1384
     18 N         142.5119  135.9786  154.2500 N.ar    1  UNL1       -0.2281
     19 C         141.8125  134.6637  154.0713 C.ar    1  UNL1        0.1136
     20 C         141.9509  133.5930  155.1126 C.ar    1  UNL1        0.1215
     21 C         141.2515  132.2782  154.9339 C.1     1  UNL1        0.1051
     22 N         140.5521  130.9632  154.7552 N.1     1  UNL1       -0.1907
     23 O         142.9270  132.7665  157.3740 O.3     1  UNL1       -0.4719
     24 C         144.2326  132.0471  157.5412 C.3     1  UNL1        0.2373
     25 C         145.0747  131.7324  156.3404 C.3     1  UNL1        0.1894
     26 C         143.7283  129.5468  155.9403 C.3     1  UNL1        0.1743
     27 O         144.7357  130.5556  155.4742 O.3     1  UNL1       -0.3471
     28 C         139.8741  141.8742  158.9675 C.2     1  UNL1        0.2529
     29 O         139.6207  140.9508  160.1222 O.2     1  UNL1       -0.2815
     30 C         141.2729  144.5039  159.3249 C.3     1  UNL1        0.1218
     31 N         141.2985  144.5883  160.8223 N.am    1  UNL1       -0.2739
     32 C         142.2128  143.8237  161.7330 C.3     1  UNL1        0.1101
     33 C         141.8936  144.2149  163.1455 C.3     1  UNL1        0.0866
     34 C         140.7820  145.2214  163.1077 C.3     1  UNL1        0.1029
     35 C         140.4142  145.4521  161.6719 C.2     1  UNL1        0.2273
     36 O         139.3490  146.3831  161.1733 O.2     1  UNL1       -0.2748
     37 N         142.5677  143.6917  164.3791 N.3     1  UNL1       -0.2696
     38 C         141.7759  142.9310  165.4011 C.3     1  UNL1        0.0897
     39 C         144.0336  143.9290  164.5907 C.3     1  UNL1        0.0897
@<TRIPOS>BOND
     1    26    27    1
     2    27    25    1
     3    25    24    1
     4    24    23    1
     5    23    15    1
     6    15    16   ar
     7    16    17   ar
     8    17     1    1
     9     1     2   am
    10     2     3    2
    11     2     4   am
    12     4     5    1
    13     5     6    1
    14     6     7    1
    15     7     8    1
    16     8     9   ar
    17     9    10   ar
    18    10    30    1
    19    30    31    1
    20    31    32    1
    21    32    33    1
    22    33    37    1
    23    37    38    1
    24    37    39    1
    25    33    34    1
    26    34    35    1
    27    35    36    2
    28    10    11   ar
    29    11    28    1
    30    28    29    2
    31    11    12   ar
    32    12    13   ar
    33    17    18   ar
    34    18    19   ar
    35    19    20   ar
    36    20    21    1
    37    21    22    3
    38    20    15   ar
    39    13     4    1
    40    13     8   ar
    41    35    31   am
    42     1    14    1
@<TRIPOS>MOLECULE
*****
 39 42 0 0 0
SMALL
GASTEIGER

@<TRIPOS>ATOM
      1 N         143.1438  139.7517  164.5636 N.am    1  UNL1       -0.2531
      2 C         142.1584  140.0582  163.4751 C.2     1  UNL1        0.3135
      3 O         141.0809  141.0763  163.7037 O.2     1  UNL1       -0.2518
      4 N         142.2506  139.3466  162.1578 N.am    1  UNL1       -0.2282
      5 C         143.3282  138.3286  161.9291 C.3     1  UNL1        0.1015
      6 C         143.4203  137.6170  160.6119 C.3     1  UNL1        0.0268
      7 C         142.4349  137.9236  159.5233 C.3     1  UNL1        0.0310
      8 C         141.3574  138.9417  159.7519 C.ar    1  UNL1        0.0096
      9 C         140.3720  139.2482  158.6634 C.ar    1  UNL1       -0.0025
     10 C         139.2944  140.2663  158.8920 C.ar    1  UNL1        0.0184
     11 CA        139.2022  140.9779  160.2093 C.ar    1  UNL1        0.1224
     12 N         140.1876  140.6713  161.2979 N.ar    1  UNL1       -0.2275
     13 C         141.2652  139.6532  161.0692 C.ar    1  UNL1        0.1345
     14 H         143.8511  139.0835  164.4135 H       1  UNL1        0.1578
     15 C         142.4587  140.4469  168.4104 C.ar    1  UNL1        0.1525
     16 C         142.5508  139.7353  167.0931 C.ar    1  UNL1        0.0721
     17 C         143.0517  140.4632  165.8809 C.ar    1  UNL1        0.1384
     18 N         143.4604  141.9026  165.9860 N.ar    1  UNL1       -0.2281
     19 C         143.3682  142.6142  167.3034 C.ar    1  UNL1        0.1136
     20 C         142.8674  141.8863  168.5155 C.ar    1  UNL1        0.1215
     21 C         142.7752  142.5978  169.8327 C.1     1  UNL1        0.1051
     22 N         142.6831  143.3093  171.1501 N.1     1  UNL1       -0.1907
     23 O         141.9578  139.7190  169.6225 O.3     1  UNL1       -0.4719
     24 C         140.5833  140.0016  170.1524 C.3     1  UNL1        0.2373
     25 C         139.4913  140.4269  169.2160 C.3     1  UNL1        0.1894
     26 C         138.8939  139.4888  166.8680 C.3     1  UNL1        0.1743
     27 O         138.7959  139.4080  168.3626 O.3     1  UNL1       -0.3471
     28 C         138.1247  141.9960  160.4380 C.2     1  UNL1        0.2529
     29 O         138.4881  143.4301  160.6859 O.2     1  UNL1       -0.2815
     30 C         138.3090  140.5729  157.8035 C.3     1  UNL1        0.1218
     31 N         138.3823  141.8802  157.0718 N.am    1  UNL1       -0.2739
     32 C         139.5413  142.8324  157.0819 C.3     1  UNL1        0.1101
     33 C         139.1849  144.0056  156.2178 C.3     1  UNL1        0.0866
     34 C         137.8055  143.7784  155.6738 C.3     1  UNL1        0.1029
     35 C         137.3096  142.4649  156.2015 C.2     1  UNL1        0.2273
     36 O         135.9752  141.8449  155.9102 O.2     1  UNL1       -0.2748
     37 N         140.0549  145.1968  155.9457 N.3     1  UNL1       -0.2696
     38 C         139.6480  146.5521  156.4434 C.3     1  UNL1        0.0897
     39 C         141.3317  145.0327  155.1758 C.3     1  UNL1        0.0897
@<TRIPOS>BOND
     1    26    27    1
     2    27    25    1
     3    25    24    1
     4    24    23    1
     5    23    15    1
     6    15    16   ar
     7    16    17   ar
     8    17     1    1
     9     1     2   am
    10     2     3    2
    11     2     4   am
    12     4     5    1
    13     5     6    1
    14     6     7    1
    15     7     8    1
    16     8     9   ar
    17     9    10   ar
    18    10    30    1
    19    30    31    1
    20    31    32    1
    21    32    33    1
    22    33    37    1
    23    37    38    1
    24    37    39    1
    25    33    34    1
    26    34    35    1
    27    35    36    2
    28    10    11   ar
    29    11    28    1
    30    28    29    2
    31    11    12   ar
    32    12    13   ar
    33    17    18   ar
    34    18    19   ar
    35    19    20   ar
    36    20    21    1
    37    21    22    3
    38    20    15   ar
    39    13     4    1
    40    13     8   ar
    41    35    31   am
    42     1    14    1
@<TRIPOS>MOLECULE
*****
 39 42 0 0 0
SMALL
GASTEIGER

@<TRIPOS>ATOM
      1 N         141.6421  139.1414  158.6862 N.am    1  UNL1       -0.2531
      2 C         142.1569  139.1041  160.0946 C.2     1  UNL1        0.3135
      3 O         143.5730  139.5036  160.3864 O.2     1  UNL1       -0.2518
      4 N         141.2555  138.6674  161.2113 N.am    1  UNL1       -0.2282
      5 C         139.8395  138.2679  160.9196 C.3     1  UNL1        0.1015
      6 C         138.9382  137.8312  162.0362 C.3     1  UNL1        0.0268
      7 C         139.4530  137.7940  163.4446 C.3     1  UNL1        0.0310
      8 C         140.8691  138.1935  163.7364 C.ar    1  UNL1        0.0096
      9 C         141.3838  138.1563  165.1448 C.ar    1  UNL1       -0.0025
     10 C         142.7999  138.5557  165.4365 C.ar    1  UNL1        0.0184
     11 CA        143.7013  138.9924  164.3199 C.ar    1  UNL1        0.1224
     12 N         143.1865  139.0297  162.9114 N.ar    1  UNL1       -0.2275
     13 C         141.7703  138.6302  162.6197 C.ar    1  UNL1        0.1345
     14 H         140.7127  138.8792  158.4947 H       1  UNL1        0.1578
     15 C         143.5563  141.4695  156.1044 C.ar    1  UNL1        0.1525
     16 C         142.6550  141.0328  157.2211 C.ar    1  UNL1        0.0721
     17 C         142.5434  139.5780  157.5696 C.ar    1  UNL1        0.1384
     18 N         143.3330  138.5601  156.8013 N.ar    1  UNL1       -0.2281
     19 C         144.2344  138.9968  155.6846 C.ar    1  UNL1        0.1136
     20 C         144.3460  140.4515  155.3362 C.ar    1  UNL1        0.1215
     21 C         145.2472  140.8882  154.2196 C.1     1  UNL1        0.1051
     22 N         146.1486  141.3249  153.1028 N.1     1  UNL1       -0.1907
     23 O         143.6679  142.9241  155.7560 O.3     1  UNL1       -0.4719
     24 C         142.5054  143.8427  155.9900 C.3     1  UNL1        0.2373
     25 C         142.4818  144.7294  157.1997 C.3     1  UNL1        0.1894
     26 C         140.2351  145.8553  157.8589 C.3     1  UNL1        0.1743
     27 O         141.5930  145.9374  157.2270 O.3     1  UNL1       -0.3471
     28 C         145.1173  139.3919  164.6116 C.2     1  UNL1        0.2529
     29 O         145.6181  140.7413  164.1893 O.2     1  UNL1       -0.2815
     30 C         143.3147  138.5185  166.8449 C.3     1  UNL1        0.1218
     31 N         142.6332  139.3201  167.9140 N.am    1  UNL1       -0.2739
     32 C         141.8718  140.5962  167.7089 C.3     1  UNL1        0.1101
     33 C         141.3615  141.0511  169.0440 C.3     1  UNL1        0.0866
     34 C         141.8074  140.0562  170.0743 C.3     1  UNL1        0.1029
     35 C         142.5933  138.9864  169.3758 C.2     1  UNL1        0.2273
     36 O         143.2279  137.7925  170.0253 O.2     1  UNL1       -0.2748
     37 N         140.5480  142.2844  169.3034 N.3     1  UNL1       -0.2696
     38 C         140.3128  143.2734  168.2004 C.3     1  UNL1        0.0897
     39 C         139.9698  142.5287  170.6658 C.3     1  UNL1        0.0897
@<TRIPOS>BOND
     1    26    27    1
     2    27    25    1
     3    25    24    1
     4    24    23    1
     5    23    15    1
     6    15    16   ar
     7    16    17   ar
     8    17     1    1
     9     1     2   am
    10     2     3    2
    11     2     4   am
    12     4     5    1
    13     5     6    1
    14     6     7    1
    15     7     8    1
    16     8     9   ar
    17     9    10   ar
    18    10    30    1
    19    30    31    1
    20    31    32    1
    21    32    33    1
    22    33    37    1
    23    37    38    1
    24    37    39    1
    25    33    34    1
    26    34    35    1
    27    35    36    2
    28    10    11   ar
    29    11    28    1
    30    28    29    2
    31    11    12   ar
    32    12    13   ar
    33    17    18   ar
    34    18    19   ar
    35    19    20   ar
    36    20    21    1
    37    21    22    3
    38    20    15   ar
    39    13     4    1
    40    13     8   ar
    41    35    31   am
    42     1    14    1
