@<TRIPOS>MOLECULE
*****
 34 37 0 0 0
SMALL
GASTEIGER

@<TRIPOS>ATOM
      1 N         140.4640  143.4200  163.9720 N.ar    1  UNL1       -0.2490
      2 C         140.9578  144.5744  163.1513 C.ar    1  UNL1        0.1024
      3 C         140.1575  144.6177  161.8835 C.ar    1  UNL1        0.1051
      4 C         139.1690  143.4901  161.9205 C.ar    1  UNL1        0.1578
      5 N         139.3584  142.7498  163.2113 N.ar    1  UNL1       -0.1539
      6 C         142.0250  142.1842  168.0076 C.3     1  UNL1        0.0588
      7 C         140.6093  142.6588  167.8643 C.3     1  UNL1        0.0180
      8 C         140.0890  143.0707  166.5191 C.3     1  UNL1        0.0268
      9 C         140.9844  143.0080  165.3172 C.3     1  UNL1        0.1193
     10 C         142.4000  142.5334  165.4606 C.3     1  UNL1        0.1151
     11 C         142.9203  142.1215  166.8057 C.3     1  UNL1        0.0330
     12 C         143.8828  142.2631  169.8221 C.3     1  UNL1        0.0897
     13 N         142.5454  141.7722  169.3528 N.3     1  UNL1       -0.2709
     14 C         141.7283  140.8694  170.2287 C.3     1  UNL1        0.1003
     15 C         142.0495  139.7098  169.3332 C.3     1  UNL1        0.0211
     16 C         141.4070  142.0290  171.1243 C.3     1  UNL1        0.1591
     17 O         140.5899  141.1262  172.0002 O.3     1  UNL1       -0.3508
     18 C         140.9112  139.9666  171.1047 C.3     1  UNL1        0.1591
     19 C         143.2953  142.4706  164.2587 C.1     1  UNL1        0.0741
     20 N         144.1907  142.4079  163.0569 N.1     1  UNL1       -0.1958
     21 C         140.3175  145.6138  160.7734 C.2     1  UNL1        0.2470
     22 N         141.5304  145.5663  159.8922 N.am    1  UNL1       -0.3252
     23 O         139.2646  146.6574  160.5446 O.2     1  UNL1       -0.2702
     24 H         142.2215  144.8814  160.0424 H       1  UNL1        0.1453
     25 H         141.6355  146.2201  159.1636 H       1  UNL1        0.1453
     26 N         138.1670  143.1605  160.8540 N.pl3   1  UNL1       -0.2964
     27 H         137.2781  143.5836  160.8661 H       1  UNL1        0.1537
     28 C         138.5193  142.1865  159.7691 C.ar    1  UNL1        0.0495
     29 C         138.8950  142.6863  158.4056 C.ar    1  UNL1        0.0155
     30 C         139.2473  141.7122  157.3206 C.ar    1  UNL1        0.0127
     31 C         139.2240  140.2385  157.5992 C.ar    1  UNL1        0.0578
     32 CL        139.5764  139.2645  156.5142 Cl      1  UNL1       -0.0822
     33 C         138.8483  139.7388  158.9627 C.ar    1  UNL1        0.0127
     34 C         138.4960  140.7128  160.0476 C.ar    1  UNL1        0.0155
@<TRIPOS>BOND
     1    12    13    1
     2     6    13    1
     3     6     7    1
     4     7     8    1
     5     8     9    1
     6     9     1    1
     7     1     2   ar
     8     2     3   ar
     9     3    21    1
    10    21    22   am
    11    21    23    2
    12     3     4   ar
    13     4    26    1
    14    26    28    1
    15    28    29   ar
    16    29    30   ar
    17    30    31   ar
    18    31    32    1
    19    31    33   ar
    20    33    34   ar
    21     4     5   ar
    22     9    10    1
    23    10    19    1
    24    19    20    3
    25    10    11    1
    26    13    14    1
    27    14    15    1
    28    14    16    1
    29    16    17    1
    30    17    18    1
    31    11     6    1
    32    18    14    1
    33     5     1   ar
    34    34    28   ar
    35    22    24    1
    36    22    25    1
    37    26    27    1
@<TRIPOS>MOLECULE
*****
 34 37 0 0 0
SMALL
GASTEIGER

@<TRIPOS>ATOM
      1 N         141.1944  143.2105  163.5934 N.ar    1  UNL1       -0.2490
      2 C         140.7703  144.5591  163.0919 C.ar    1  UNL1        0.1024
      3 C         140.5362  144.4516  161.6142 C.ar    1  UNL1        0.1051
      4 C         140.8156  143.0365  161.2024 C.ar    1  UNL1        0.1578
      5 N         141.2223  142.2695  162.4256 N.ar    1  UNL1       -0.1539
      6 C         142.2051  142.1705  167.8533 C.3     1  UNL1        0.0588
      7 C         140.7946  142.5198  167.4809 C.3     1  UNL1        0.0180
      8 C         140.4578  142.8665  166.0610 C.3     1  UNL1        0.0268
      9 C         141.5313  142.8638  165.0134 C.3     1  UNL1        0.1193
     10 C         142.9417  142.5145  165.3857 C.3     1  UNL1        0.1151
     11 C         143.2786  142.1679  166.8056 C.3     1  UNL1        0.0330
     12 C         143.8233  142.3126  169.8808 C.3     1  UNL1        0.0897
     13 N         142.5420  141.8238  169.2733 N.3     1  UNL1       -0.2709
     14 C         141.5975  140.9884  170.0857 C.3     1  UNL1        0.1003
     15 C         141.8694  139.8136  169.1935 C.3     1  UNL1        0.0211
     16 C         141.3257  142.1631  170.9778 C.3     1  UNL1        0.1591
     17 O         140.3813  141.3276  171.7902 O.3     1  UNL1       -0.3508
     18 C         140.6531  140.1529  170.8980 C.3     1  UNL1        0.1591
     19 C         144.0153  142.5119  164.3381 C.1     1  UNL1        0.0741
     20 N         145.0888  142.5093  163.2905 N.1     1  UNL1       -0.1958
     21 C         140.0994  145.5638  160.7074 C.2     1  UNL1        0.2470
     22 N         139.2044  146.6488  161.2288 N.am    1  UNL1       -0.3252
     23 O         140.5576  145.5910  159.2794 O.2     1  UNL1       -0.2702
     24 H         138.9037  146.6310  162.1660 H       1  UNL1        0.1453
     25 H         138.9178  147.3788  160.6336 H       1  UNL1        0.1453
     26 N         140.7072  142.4852  159.8116 N.pl3   1  UNL1       -0.2964
     27 H         139.8212  142.3256  159.4130 H       1  UNL1        0.1537
     28 C         141.9486  142.1771  159.0281 C.ar    1  UNL1        0.0495
     29 C         143.2226  142.9126  159.3216 C.ar    1  UNL1        0.0155
     30 C         144.4640  142.6045  158.5381 C.ar    1  UNL1        0.0127
     31 C         144.4315  141.5609  157.4611 C.ar    1  UNL1        0.0578
     32 CL        145.6730  141.2528  156.6775 Cl      1  UNL1       -0.0822
     33 C         143.1575  140.8255  157.1675 C.ar    1  UNL1        0.0127
     34 C         141.9161  141.1335  157.9510 C.ar    1  UNL1        0.0155
@<TRIPOS>BOND
     1    12    13    1
     2     6    13    1
     3     6     7    1
     4     7     8    1
     5     8     9    1
     6     9     1    1
     7     1     2   ar
     8     2     3   ar
     9     3    21    1
    10    21    22   am
    11    21    23    2
    12     3     4   ar
    13     4    26    1
    14    26    28    1
    15    28    29   ar
    16    29    30   ar
    17    30    31   ar
    18    31    32    1
    19    31    33   ar
    20    33    34   ar
    21     4     5   ar
    22     9    10    1
    23    10    19    1
    24    19    20    3
    25    10    11    1
    26    13    14    1
    27    14    15    1
    28    14    16    1
    29    16    17    1
    30    17    18    1
    31    11     6    1
    32    18    14    1
    33     5     1   ar
    34    34    28   ar
    35    22    24    1
    36    22    25    1
    37    26    27    1
@<TRIPOS>MOLECULE
*****
 34 37 0 0 0
SMALL
GASTEIGER

@<TRIPOS>ATOM
      1 N         141.0426  143.2094  163.6215 N.ar    1  UNL1       -0.2490
      2 C         140.7495  144.5861  163.1030 C.ar    1  UNL1        0.1024
      3 C         140.4070  144.4700  161.6473 C.ar    1  UNL1        0.1051
      4 C         140.4884  143.0215  161.2661 C.ar    1  UNL1        0.1578
      5 N         140.8813  142.2425  162.4862 N.ar    1  UNL1       -0.1539
      6 C         142.2023  142.1638  167.8419 C.3     1  UNL1        0.0588
      7 C         140.7727  142.4766  167.5125 C.3     1  UNL1        0.0180
      8 C         140.3862  142.8251  166.1058 C.3     1  UNL1        0.0268
      9 C         141.4292  142.8609  165.0284 C.3     1  UNL1        0.1193
     10 C         142.8588  142.5481  165.3577 C.3     1  UNL1        0.1151
     11 C         143.2453  142.1996  166.7645 C.3     1  UNL1        0.0330
     12 C         143.8632  142.3511  169.8310 C.3     1  UNL1        0.0897
     13 N         142.5889  141.8153  169.2488 N.3     1  UNL1       -0.2709
     14 C         141.7011  140.9310  170.0733 C.3     1  UNL1        0.1003
     15 C         142.0245  139.7717  169.1781 C.3     1  UNL1        0.0211
     16 C         141.3777  142.0903  170.9685 C.3     1  UNL1        0.1591
     17 O         140.4899  141.2060  171.7930 O.3     1  UNL1       -0.3508
     18 C         140.8133  140.0467  170.8978 C.3     1  UNL1        0.1591
     19 C         143.9018  142.5839  164.2803 C.1     1  UNL1        0.0741
     20 N         144.9448  142.6197  163.2029 N.1     1  UNL1       -0.1958
     21 C         140.0463  145.6034  160.7333 C.2     1  UNL1        0.2470
     22 N         139.1935  146.7302  161.2362 N.am    1  UNL1       -0.3252
     23 O         140.5385  145.6099  159.3164 O.2     1  UNL1       -0.2702
     24 H         138.8705  146.7260  162.1662 H       1  UNL1        0.1453
     25 H         138.9568  147.4741  160.6363 H       1  UNL1        0.1453
     26 N         140.2236  142.4521  159.9038 N.pl3   1  UNL1       -0.2964
     27 H         139.6316  142.9284  159.2778 H       1  UNL1        0.1537
     28 C         140.8607  141.1570  159.4954 C.ar    1  UNL1        0.0495
     29 C         140.0234  139.9202  159.3571 C.ar    1  UNL1        0.0155
     30 C         140.6605  138.6251  158.9487 C.ar    1  UNL1        0.0127
     31 C         142.1349  138.5668  158.6787 C.ar    1  UNL1        0.0578
     32 CL        142.7720  137.2716  158.2702 Cl      1  UNL1       -0.0822
     33 C         142.9721  139.8037  158.8170 C.ar    1  UNL1        0.0127
     34 C         142.3350  141.0988  159.2254 C.ar    1  UNL1        0.0155
@<TRIPOS>BOND
     1    12    13    1
     2     6    13    1
     3     6     7    1
     4     7     8    1
     5     8     9    1
     6     9     1    1
     7     1     2   ar
     8     2     3   ar
     9     3    21    1
    10    21    22   am
    11    21    23    2
    12     3     4   ar
    13     4    26    1
    14    26    28    1
    15    28    29   ar
    16    29    30   ar
    17    30    31   ar
    18    31    32    1
    19    31    33   ar
    20    33    34   ar
    21     4     5   ar
    22     9    10    1
    23    10    19    1
    24    19    20    3
    25    10    11    1
    26    13    14    1
    27    14    15    1
    28    14    16    1
    29    16    17    1
    30    17    18    1
    31    11     6    1
    32    18    14    1
    33     5     1   ar
    34    34    28   ar
    35    22    24    1
    36    22    25    1
    37    26    27    1
@<TRIPOS>MOLECULE
*****
 34 37 0 0 0
SMALL
GASTEIGER

@<TRIPOS>ATOM
      1 N         139.6646  139.7245  163.4457 N.ar    1  UNL1       -0.2490
      2 C         139.0897  138.8067  164.4835 C.ar    1  UNL1        0.1024
      3 C         138.9729  139.5738  165.7672 C.ar    1  UNL1        0.1051
      4 C         139.4756  140.9658  165.5227 C.ar    1  UNL1        0.1578
      5 N         139.9031  141.0589  164.0879 N.ar    1  UNL1       -0.1539
      6 C         140.5231  138.6613  159.1582 C.3     1  UNL1        0.0588
      7 C         139.1524  139.1223  159.5566 C.3     1  UNL1        0.0180
      8 C         138.8663  139.4767  160.9857 C.3     1  UNL1        0.0268
      9 C         139.9508  139.3701  162.0165 C.3     1  UNL1        0.1193
     10 C         141.3215  138.9091  161.6181 C.3     1  UNL1        0.1151
     11 C         141.6076  138.5547  160.1889 C.3     1  UNL1        0.0330
     12 C         139.7908  137.5553  156.9243 C.3     1  UNL1        0.0897
     13 N         140.8093  138.3069  157.7290 N.3     1  UNL1       -0.2709
     14 C         142.1140  138.7042  157.1046 C.3     1  UNL1        0.1003
     15 C         141.6901  140.1428  157.1341 C.3     1  UNL1        0.0211
     16 C         142.5379  137.2657  157.0751 C.3     1  UNL1        0.1591
     17 O         143.8426  137.6630  156.4507 O.3     1  UNL1       -0.3508
     18 C         143.4187  139.1015  156.4802 C.3     1  UNL1        0.1591
     19 C         142.4060  138.8025  162.6488 C.1     1  UNL1        0.0741
     20 N         143.4905  138.6959  163.6796 N.1     1  UNL1       -0.1958
     21 C         138.4459  139.0424  167.0671 C.2     1  UNL1        0.2470
     22 N         137.4324  137.9365  167.0696 N.am    1  UNL1       -0.3252
     23 O         138.9324  139.6167  168.3646 O.2     1  UNL1       -0.2702
     24 H         137.1131  137.5596  166.2180 H       1  UNL1        0.1453
     25 H         137.0865  137.5877  167.9228 H       1  UNL1        0.1453
     26 N         139.5395  142.0707  166.5352 N.pl3   1  UNL1       -0.2964
     27 H         138.7863  142.6979  166.6276 H       1  UNL1        0.1537
     28 C         140.7510  142.2200  167.4069 C.ar    1  UNL1        0.0495
     29 C         142.1133  141.9200  166.8554 C.ar    1  UNL1        0.0155
     30 C         143.3249  142.0693  167.7271 C.ar    1  UNL1        0.0127
     31 C         143.1741  142.5185  169.1504 C.ar    1  UNL1        0.0578
     32 CL        144.3857  142.6677  170.0221 Cl      1  UNL1       -0.0822
     33 C         141.8118  142.8184  169.7019 C.ar    1  UNL1        0.0127
     34 C         140.6003  142.6691  168.8301 C.ar    1  UNL1        0.0155
@<TRIPOS>BOND
     1    12    13    1
     2     6    13    1
     3     6     7    1
     4     7     8    1
     5     8     9    1
     6     9     1    1
     7     1     2   ar
     8     2     3   ar
     9     3    21    1
    10    21    22   am
    11    21    23    2
    12     3     4   ar
    13     4    26    1
    14    26    28    1
    15    28    29   ar
    16    29    30   ar
    17    30    31   ar
    18    31    32    1
    19    31    33   ar
    20    33    34   ar
    21     4     5   ar
    22     9    10    1
    23    10    19    1
    24    19    20    3
    25    10    11    1
    26    13    14    1
    27    14    15    1
    28    14    16    1
    29    16    17    1
    30    17    18    1
    31    11     6    1
    32    18    14    1
    33     5     1   ar
    34    34    28   ar
    35    22    24    1
    36    22    25    1
    37    26    27    1
@<TRIPOS>MOLECULE
*****
 34 37 0 0 0
SMALL
GASTEIGER

@<TRIPOS>ATOM
      1 N         139.9186  139.7998  160.2401 N.ar    1  UNL1       -0.2490
      2 C         139.8230  141.2960  160.1925 C.ar    1  UNL1        0.1024
      3 C         138.9856  141.7442  161.3535 C.ar    1  UNL1        0.1051
      4 C         138.5637  140.5249  162.1187 C.ar    1  UNL1        0.1578
      5 N         139.1403  139.3233  161.4306 N.ar    1  UNL1       -0.1539
      6 C         142.1488  137.1978  157.3237 C.3     1  UNL1        0.0588
      7 C         140.7185  137.5646  157.0598 C.3     1  UNL1        0.0180
      8 C         139.9751  138.4320  158.0320 C.3     1  UNL1        0.0268
      9 C         140.6621  138.9325  159.2680 C.3     1  UNL1        0.1193
     10 C         142.0924  138.5656  159.5318 C.3     1  UNL1        0.1151
     11 C         142.8357  137.6983  158.5596 C.3     1  UNL1        0.0330
     12 C         144.0539  136.8889  155.5844 C.3     1  UNL1        0.0897
     13 N         142.8922  136.3304  156.3515 N.3     1  UNL1       -0.2709
     14 C         142.4739  134.9046  156.1465 C.3     1  UNL1        0.1003
     15 C         141.7578  135.2956  154.8879 C.3     1  UNL1        0.0211
     16 C         143.1900  134.5135  157.4052 C.3     1  UNL1        0.1591
     17 O         142.7717  133.0877  157.2002 O.3     1  UNL1       -0.3508
     18 C         142.0556  133.4788  155.9415 C.3     1  UNL1        0.1591
     19 C         142.7793  139.0661  160.7678 C.1     1  UNL1        0.0741
     20 N         143.4662  139.5666  162.0038 N.1     1  UNL1       -0.1958
     21 C         138.6322  143.1626  161.6902 C.2     1  UNL1        0.2470
     22 N         139.3193  144.2943  160.9851 N.am    1  UNL1       -0.3252
     23 O         137.5917  143.4491  162.7319 O.2     1  UNL1       -0.2702
     24 H         140.0022  144.1062  160.3014 H       1  UNL1        0.1453
     25 H         139.0873  145.2252  161.2061 H       1  UNL1        0.1453
     26 N         137.7143  140.5100  163.3549 N.pl3   1  UNL1       -0.2964
     27 H         136.7332  140.5412  163.2785 H       1  UNL1        0.1537
     28 C         138.3596  140.4476  164.7075 C.ar    1  UNL1        0.0495
     29 C         138.0761  139.2922  165.6211 C.ar    1  UNL1        0.0155
     30 C         138.7213  139.2297  166.9738 C.ar    1  UNL1        0.0127
     31 C         139.6501  140.3227  167.4128 C.ar    1  UNL1        0.0578
     32 CL        140.2954  140.2602  168.7656 Cl      1  UNL1       -0.0822
     33 C         139.9336  141.4781  166.4993 C.ar    1  UNL1        0.0127
     34 C         139.2883  141.5406  165.1466 C.ar    1  UNL1        0.0155
@<TRIPOS>BOND
     1    12    13    1
     2     6    13    1
     3     6     7    1
     4     7     8    1
     5     8     9    1
     6     9     1    1
     7     1     2   ar
     8     2     3   ar
     9     3    21    1
    10    21    22   am
    11    21    23    2
    12     3     4   ar
    13     4    26    1
    14    26    28    1
    15    28    29   ar
    16    29    30   ar
    17    30    31   ar
    18    31    32    1
    19    31    33   ar
    20    33    34   ar
    21     4     5   ar
    22     9    10    1
    23    10    19    1
    24    19    20    3
    25    10    11    1
    26    13    14    1
    27    14    15    1
    28    14    16    1
    29    16    17    1
    30    17    18    1
    31    11     6    1
    32    18    14    1
    33     5     1   ar
    34    34    28   ar
    35    22    24    1
    36    22    25    1
    37    26    27    1
@<TRIPOS>MOLECULE
*****
 34 37 0 0 0
SMALL
GASTEIGER

@<TRIPOS>ATOM
      1 N         140.5963  143.0389  163.5302 N.ar    1  UNL1       -0.2490
      2 C         140.0042  142.0508  162.5695 C.ar    1  UNL1        0.1024
      3 C         139.6817  142.7772  161.2973 C.ar    1  UNL1        0.1051
      4 C         140.0746  144.2143  161.4719 C.ar    1  UNL1        0.1578
      5 N         140.6398  144.3760  162.8518 N.ar    1  UNL1       -0.1539
      6 C         141.9963  142.1482  167.7131 C.3     1  UNL1        0.0588
      7 C         140.5617  142.5073  167.4629 C.3     1  UNL1        0.0180
      8 C         140.0950  142.8042  166.0687 C.3     1  UNL1        0.0268
      9 C         141.0630  142.7420  164.9245 C.3     1  UNL1        0.1193
     10 C         142.4977  142.3828  165.1747 C.3     1  UNL1        0.1151
     11 C         142.9644  142.0859  166.5689 C.3     1  UNL1        0.0330
     12 C         143.7866  142.3733  169.5824 C.3     1  UNL1        0.0897
     13 N         142.4631  141.8512  169.1074 N.3     1  UNL1       -0.2709
     14 C         141.6062  141.0322  170.0266 C.3     1  UNL1        0.1003
     15 C         141.8356  139.8257  169.1655 C.3     1  UNL1        0.0211
     16 C         141.3768  142.2388  170.8878 C.3     1  UNL1        0.1591
     17 O         140.5199  141.4198  171.8070 O.3     1  UNL1       -0.3508
     18 C         140.7493  140.2132  170.9459 C.3     1  UNL1        0.1591
     19 C         143.4658  142.3206  164.0306 C.1     1  UNL1        0.0741
     20 N         144.4338  142.2584  162.8864 N.1     1  UNL1       -0.1958
     21 C         139.0732  142.1727  160.0668 C.2     1  UNL1        0.2470
     22 N         139.4071  140.7623  159.6803 N.am    1  UNL1       -0.3252
     23 O         138.1308  142.9786  159.2227 O.2     1  UNL1       -0.2702
     24 H         140.0256  140.2334  160.2343 H       1  UNL1        0.1453
     25 H         139.0077  140.3655  158.8726 H       1  UNL1        0.1453
     26 N         139.9279  145.2992  160.4464 N.pl3   1  UNL1       -0.2964
     27 H         139.3536  146.0772  160.6316 H       1  UNL1        0.1537
     28 C         140.6562  145.1989  159.1390 C.ar    1  UNL1        0.0495
     29 C         141.8809  144.3401  159.0267 C.ar    1  UNL1        0.0155
     30 C         142.6092  144.2398  157.7193 C.ar    1  UNL1        0.0127
     31 C         142.1128  144.9982  156.5241 C.ar    1  UNL1        0.0578
     32 CL        142.8412  144.8978  155.2166 Cl      1  UNL1       -0.0822
     33 C         140.8881  145.8569  156.6363 C.ar    1  UNL1        0.0127
     34 C         140.1598  145.9572  157.9438 C.ar    1  UNL1        0.0155
@<TRIPOS>BOND
     1    12    13    1
     2     6    13    1
     3     6     7    1
     4     7     8    1
     5     8     9    1
     6     9     1    1
     7     1     2   ar
     8     2     3   ar
     9     3    21    1
    10    21    22   am
    11    21    23    2
    12     3     4   ar
    13     4    26    1
    14    26    28    1
    15    28    29   ar
    16    29    30   ar
    17    30    31   ar
    18    31    32    1
    19    31    33   ar
    20    33    34   ar
    21     4     5   ar
    22     9    10    1
    23    10    19    1
    24    19    20    3
    25    10    11    1
    26    13    14    1
    27    14    15    1
    28    14    16    1
    29    16    17    1
    30    17    18    1
    31    11     6    1
    32    18    14    1
    33     5     1   ar
    34    34    28   ar
    35    22    24    1
    36    22    25    1
    37    26    27    1
@<TRIPOS>MOLECULE
*****
 34 37 0 0 0
SMALL
GASTEIGER

@<TRIPOS>ATOM
      1 N         141.6196  143.0549  163.3287 N.ar    1  UNL1       -0.2490
      2 C         141.2687  144.3949  162.7530 C.ar    1  UNL1        0.1024
      3 C         141.1744  144.2490  161.2631 C.ar    1  UNL1        0.1051
      4 C         141.4670  142.8188  160.9180 C.ar    1  UNL1        0.1578
      5 N         141.7421  142.0809  162.1947 N.ar    1  UNL1       -0.1539
      6 C         142.2022  142.1214  167.6921 C.3     1  UNL1        0.0588
      7 C         143.3929  142.3350  166.8054 C.3     1  UNL1        0.0180
      8 C         143.1987  142.6462  165.3509 C.3     1  UNL1        0.0268
      9 C         141.8137  142.7438  164.7833 C.3     1  UNL1        0.1193
     10 C         140.6230  142.5302  165.6700 C.3     1  UNL1        0.1151
     11 C         140.8172  142.2190  167.1244 C.3     1  UNL1        0.0330
     12 C         143.5223  142.4470  169.9060 C.3     1  UNL1        0.0897
     13 N         142.3963  141.8102  169.1466 N.3     1  UNL1       -0.2709
     14 C         141.4645  140.8623  169.8417 C.3     1  UNL1        0.1003
     15 C         142.0983  139.7101  169.1200 C.3     1  UNL1        0.0211
     16 C         140.8307  142.0145  170.5634 C.3     1  UNL1        0.1591
     17 O         139.8989  141.0665  171.2584 O.3     1  UNL1       -0.3508
     18 C         140.5327  139.9144  170.5367 C.3     1  UNL1        0.1591
     19 C         139.2380  142.6277  165.1023 C.1     1  UNL1        0.0741
     20 N         137.8530  142.7253  164.5346 N.1     1  UNL1       -0.1958
     21 C         140.8454  145.3413  160.2892 C.2     1  UNL1        0.2470
     22 N         141.8129  145.6888  159.1969 N.am    1  UNL1       -0.3252
     23 O         139.5488  146.0862  160.4078 O.2     1  UNL1       -0.2702
     24 H         142.6638  145.1999  159.1191 H       1  UNL1        0.1453
     25 H         141.5969  146.4058  158.5577 H       1  UNL1        0.1453
     26 N         141.4819  142.2299  159.5385 N.pl3   1  UNL1       -0.2964
     27 H         142.3393  142.0301  159.0978 H       1  UNL1        0.1537
     28 C         140.1905  141.9455  158.8305 C.ar    1  UNL1        0.0495
     29 C         139.7601  142.8072  157.6807 C.ar    1  UNL1        0.0155
     30 C         138.4687  142.5228  156.9726 C.ar    1  UNL1        0.0127
     31 C         137.6077  141.3767  157.4144 C.ar    1  UNL1        0.0578
     32 CL        136.3162  141.0923  156.7063 Cl      1  UNL1       -0.0822
     33 C         138.0381  140.5150  158.5642 C.ar    1  UNL1        0.0127
     34 C         139.3296  140.7994  159.2723 C.ar    1  UNL1        0.0155
@<TRIPOS>BOND
     1    12    13    1
     2     6    13    1
     3     6     7    1
     4     7     8    1
     5     8     9    1
     6     9     1    1
     7     1     2   ar
     8     2     3   ar
     9     3    21    1
    10    21    22   am
    11    21    23    2
    12     3     4   ar
    13     4    26    1
    14    26    28    1
    15    28    29   ar
    16    29    30   ar
    17    30    31   ar
    18    31    32    1
    19    31    33   ar
    20    33    34   ar
    21     4     5   ar
    22     9    10    1
    23    10    19    1
    24    19    20    3
    25    10    11    1
    26    13    14    1
    27    14    15    1
    28    14    16    1
    29    16    17    1
    30    17    18    1
    31    11     6    1
    32    18    14    1
    33     5     1   ar
    34    34    28   ar
    35    22    24    1
    36    22    25    1
    37    26    27    1
@<TRIPOS>MOLECULE
*****
 34 37 0 0 0
SMALL
GASTEIGER

@<TRIPOS>ATOM
      1 N         139.2941  140.1409  164.7390 N.ar    1  UNL1       -0.2490
      2 C         138.3544  139.0016  165.0015 C.ar    1  UNL1        0.1024
      3 C         138.2680  138.8045  166.4860 C.ar    1  UNL1        0.1051
      4 C         139.1544  139.8221  167.1410 C.ar    1  UNL1        0.1578
      5 N         139.7885  140.6480  166.0613 N.ar    1  UNL1       -0.1539
      6 C         140.4304  141.7542  160.6948 C.3     1  UNL1        0.0588
      7 C         139.1440  142.1803  161.3378 C.3     1  UNL1        0.0180
      8 C         138.7653  141.6426  162.6859 C.3     1  UNL1        0.0268
      9 C         139.6729  140.6787  163.3909 C.3     1  UNL1        0.1193
     10 C         140.9593  140.2525  162.7479 C.3     1  UNL1        0.1151
     11 C         141.3381  140.7903  161.3998 C.3     1  UNL1        0.0330
     12 C         141.3492  141.3683  158.2954 C.3     1  UNL1        0.0897
     13 N         140.8092  142.2920  159.3467 N.3     1  UNL1       -0.2709
     14 C         140.6481  143.7535  159.0499 C.3     1  UNL1        0.1003
     15 C         139.4468  143.4493  158.2047 C.3     1  UNL1        0.0211
     16 C         141.8494  144.0576  159.8951 C.3     1  UNL1        0.1591
     17 O         141.6882  145.5190  159.5983 O.3     1  UNL1       -0.3508
     18 C         140.4869  145.2149  158.7531 C.3     1  UNL1        0.1591
     19 C         141.8670  139.2886  163.4529 C.1     1  UNL1        0.0741
     20 N         142.7746  138.3247  164.1579 N.1     1  UNL1       -0.1958
     21 C         137.4405  137.7714  167.1916 C.2     1  UNL1        0.2470
     22 N         137.3108  136.3926  166.6152 N.am    1  UNL1       -0.3252
     23 O         136.7428  138.1170  168.4737 O.2     1  UNL1       -0.2702
     24 H         137.7688  136.1658  165.7737 H       1  UNL1        0.1453
     25 H         136.7677  135.7145  167.0783 H       1  UNL1        0.1453
     26 N         139.3689  139.9851  168.6166 N.pl3   1  UNL1       -0.2964
     27 H         138.7700  139.5332  169.2540 H       1  UNL1        0.1537
     28 C         140.4959  140.8368  169.1211 C.ar    1  UNL1        0.0495
     29 C         141.8425  140.2261  169.3736 C.ar    1  UNL1        0.0155
     30 C         142.9695  141.0777  169.8781 C.ar    1  UNL1        0.0127
     31 C         142.7499  142.5400  170.1300 C.ar    1  UNL1        0.0578
     32 CL        143.8771  143.3917  170.6345 Cl      1  UNL1       -0.0822
     33 C         141.4034  143.1507  169.8775 C.ar    1  UNL1        0.0127
     34 C         140.2763  142.2991  169.3730 C.ar    1  UNL1        0.0155
@<TRIPOS>BOND
     1    12    13    1
     2     6    13    1
     3     6     7    1
     4     7     8    1
     5     8     9    1
     6     9     1    1
     7     1     2   ar
     8     2     3   ar
     9     3    21    1
    10    21    22   am
    11    21    23    2
    12     3     4   ar
    13     4    26    1
    14    26    28    1
    15    28    29   ar
    16    29    30   ar
    17    30    31   ar
    18    31    32    1
    19    31    33   ar
    20    33    34   ar
    21     4     5   ar
    22     9    10    1
    23    10    19    1
    24    19    20    3
    25    10    11    1
    26    13    14    1
    27    14    15    1
    28    14    16    1
    29    16    17    1
    30    17    18    1
    31    11     6    1
    32    18    14    1
    33     5     1   ar
    34    34    28   ar
    35    22    24    1
    36    22    25    1
    37    26    27    1
@<TRIPOS>MOLECULE
*****
 34 37 0 0 0
SMALL
GASTEIGER

@<TRIPOS>ATOM
      1 N         141.5574  143.0583  163.3709 N.ar    1  UNL1       -0.2490
      2 C         141.2815  144.4076  162.7764 C.ar    1  UNL1        0.1024
      3 C         141.1310  144.2389  161.2936 C.ar    1  UNL1        0.1051
      4 C         141.3138  142.7853  160.9716 C.ar    1  UNL1        0.1578
      5 N         141.5773  142.0557  162.2554 N.ar    1  UNL1       -0.1539
      6 C         142.2104  142.1738  167.7345 C.3     1  UNL1        0.0588
      7 C         143.3744  142.1816  166.7885 C.3     1  UNL1        0.0180
      8 C         143.1567  142.4765  165.3340 C.3     1  UNL1        0.0268
      9 C         141.7750  142.7634  164.8255 C.3     1  UNL1        0.1193
     10 C         140.6110  142.7556  165.7715 C.3     1  UNL1        0.1151
     11 C         140.8287  142.4607  167.2260 C.3     1  UNL1        0.0330
     12 C         143.5488  142.5459  169.9300 C.3     1  UNL1        0.0897
     13 N         142.4281  141.8789  169.1891 N.3     1  UNL1       -0.2709
     14 C         141.5249  140.9171  169.9027 C.3     1  UNL1        0.1003
     15 C         141.8692  139.8525  168.9035 C.3     1  UNL1        0.0211
     16 C         141.1807  141.9816  170.9018 C.3     1  UNL1        0.1591
     17 O         140.2776  141.0197  171.6154 O.3     1  UNL1       -0.3508
     18 C         140.6218  139.9552  170.6162 C.3     1  UNL1        0.1591
     19 C         139.2293  143.0426  165.2630 C.1     1  UNL1        0.0741
     20 N         137.8476  143.3295  164.7545 N.1     1  UNL1       -0.1958
     21 C         140.8475  145.3318  160.3061 C.2     1  UNL1        0.2470
     22 N         141.8564  145.6667  159.2478 N.am    1  UNL1       -0.3252
     23 O         139.5551  146.0899  160.3771 O.2     1  UNL1       -0.2702
     24 H         142.7046  145.1691  159.2013 H       1  UNL1        0.1453
     25 H         141.6703  146.3840  158.5997 H       1  UNL1        0.1453
     26 N         141.2451  142.1694  159.6055 N.pl3   1  UNL1       -0.2964
     27 H         140.3995  141.7831  159.2817 H       1  UNL1        0.1537
     28 C         142.4649  142.1422  158.7329 C.ar    1  UNL1        0.0495
     29 C         142.3449  141.7580  157.2880 C.ar    1  UNL1        0.0155
     30 C         143.5646  141.7308  156.4154 C.ar    1  UNL1        0.0127
     31 C         144.9044  142.0878  156.9878 C.ar    1  UNL1        0.0578
     32 CL        146.1242  142.0605  156.1151 Cl      1  UNL1       -0.0822
     33 C         145.0244  142.4720  158.4327 C.ar    1  UNL1        0.0127
     34 C         143.8047  142.4992  159.3053 C.ar    1  UNL1        0.0155
@<TRIPOS>BOND
     1    12    13    1
     2     6    13    1
     3     6     7    1
     4     7     8    1
     5     8     9    1
     6     9     1    1
     7     1     2   ar
     8     2     3   ar
     9     3    21    1
    10    21    22   am
    11    21    23    2
    12     3     4   ar
    13     4    26    1
    14    26    28    1
    15    28    29   ar
    16    29    30   ar
    17    30    31   ar
    18    31    32    1
    19    31    33   ar
    20    33    34   ar
    21     4     5   ar
    22     9    10    1
    23    10    19    1
    24    19    20    3
    25    10    11    1
    26    13    14    1
    27    14    15    1
    28    14    16    1
    29    16    17    1
    30    17    18    1
    31    11     6    1
    32    18    14    1
    33     5     1   ar
    34    34    28   ar
    35    22    24    1
    36    22    25    1
    37    26    27    1
