@<TRIPOS>MOLECULE
*****
 24 27 0 0 0
SMALL
GASTEIGER

@<TRIPOS>ATOM
      1 C         143.7262  142.3069  169.5093 C.3     1  UNL1        0.0331
      2 C         142.4023  141.6202  169.3492 C.2     1  UNL1        0.0033
      3 C         142.0122  141.0436  168.0205 C.2     1  UNL1       -0.0029
      4 C         140.6883  140.3569  167.8605 C.3     1  UNL1        0.1368
      5 C         139.7544  140.2468  169.0291 C.2     1  UNL1        0.0771
      6 C         140.1444  140.8234  170.3577 C.2     1  UNL1        0.0435
      7 C         141.4684  141.5101  170.5178 C.2     1  UNL1        0.1369
      8 F         141.8584  142.0867  171.8465 F       1  UNL1       -0.2045
      9 N         138.5247  139.5191  168.5727 N.am    1  UNL1       -0.1645
     10 C         138.6986  139.1795  167.1220 C.2     1  UNL1        0.3277
     11 O         137.7089  138.4501  166.2625 O.2     1  UNL1       -0.2504
     12 N         140.0358  139.6973  166.6818 N.am    1  UNL1       -0.2569
     13 C         140.6182  139.5766  165.3048 C.3     1  UNL1        0.0803
     14 C         141.2668  138.2944  164.8745 C.3     1  UNL1        0.0372
     15 C         141.8492  138.1737  163.4975 C.3     1  UNL1        0.0738
     16 N         141.7831  139.3353  162.5508 N.3     1  UNL1       -0.2737
     17 C         141.1345  140.6175  162.9811 C.3     1  UNL1        0.0738
     18 C         140.5520  140.7382  164.3581 C.3     1  UNL1        0.0372
     19 C         142.3655  139.2146  161.1738 C.3     1  UNL1        0.0625
     20 C         142.1846  137.9477  160.3913 C.3     1  UNL1        0.0481
     21 C         142.7671  137.8270  159.0142 C.3     1  UNL1        0.1435
     22 O         143.5303  138.9732  158.4197 O.3     1  UNL1       -0.3537
     23 C         143.7112  140.2401  159.2021 C.3     1  UNL1        0.1435
     24 C         143.1288  140.3609  160.5791 C.3     1  UNL1        0.0481
@<TRIPOS>BOND
     1     1     2    1
     2     2     3    2
     3     3     4    1
     4     4     5    1
     5     5     6    1
     6     6     7    2
     7     7     8    1
     8     5     9    2
     9     9    10    1
    10    10    11    2
    11    10    12   am
    12    12    13    1
    13    13    14    1
    14    14    15    1
    15    15    16    1
    16    16    19    1
    17    19    20    1
    18    20    21    1
    19    21    22    1
    20    22    23    1
    21    23    24    1
    22    16    17    1
    23    17    18    1
    24     7     2    1
    25    18    13    1
    26    12     4    1
    27    24    19    1
@<TRIPOS>MOLECULE
*****
 24 27 0 0 0
SMALL
GASTEIGER

@<TRIPOS>ATOM
      1 C         143.4026  142.4385  168.4276 C.3     1  UNL1        0.0331
      2 C         142.1079  141.7000  168.5964 C.2     1  UNL1        0.0033
      3 C         141.4938  140.9862  167.4288 C.2     1  UNL1       -0.0029
      4 C         140.1992  140.2477  167.5977 C.3     1  UNL1        0.1368
      5 C         139.5185  140.2231  168.9341 C.2     1  UNL1        0.0771
      6 C         140.1326  140.9370  170.1017 C.2     1  UNL1        0.0435
      7 C         141.4272  141.6754  169.9328 C.2     1  UNL1        0.1369
      8 F         142.0413  142.3893  171.1005 F       1  UNL1       -0.2045
      9 N         138.2602  139.4181  168.7986 N.am    1  UNL1       -0.1645
     10 C         138.1631  138.9451  167.3784 C.2     1  UNL1        0.3277
     11 O         137.0610  138.1066  166.8018 O.2     1  UNL1       -0.2504
     12 N         139.3614  139.4578  166.6362 N.am    1  UNL1       -0.2569
     13 C         139.6683  139.2221  165.1869 C.3     1  UNL1        0.0803
     14 C         139.6516  140.3692  164.2206 C.3     1  UNL1        0.0372
     15 C         139.9584  140.1336  162.7714 C.3     1  UNL1        0.0738
     16 N         140.2819  138.7508  162.2885 N.3     1  UNL1       -0.2737
     17 C         140.2985  137.6037  163.2548 C.3     1  UNL1        0.0738
     18 C         139.9917  137.8393  164.7040 C.3     1  UNL1        0.0372
     19 C         140.5887  138.5151  160.8392 C.3     1  UNL1        0.0625
     20 C         141.9995  138.2482  160.4051 C.3     1  UNL1        0.0481
     21 C         142.3064  138.0124  158.9558 C.3     1  UNL1        0.1435
     22 O         141.2025  138.0436  157.9407 O.3     1  UNL1       -0.3537
     23 C         139.7917  138.3106  158.3749 C.3     1  UNL1        0.1435
     24 C         139.4848  138.5463  159.8241 C.3     1  UNL1        0.0481
@<TRIPOS>BOND
     1     1     2    1
     2     2     3    2
     3     3     4    1
     4     4     5    1
     5     5     6    1
     6     6     7    2
     7     7     8    1
     8     5     9    2
     9     9    10    1
    10    10    11    2
    11    10    12   am
    12    12    13    1
    13    13    14    1
    14    14    15    1
    15    15    16    1
    16    16    19    1
    17    19    20    1
    18    20    21    1
    19    21    22    1
    20    22    23    1
    21    23    24    1
    22    16    17    1
    23    17    18    1
    24     7     2    1
    25    18    13    1
    26    12     4    1
    27    24    19    1
@<TRIPOS>MOLECULE
*****
 24 27 0 0 0
SMALL
GASTEIGER

@<TRIPOS>ATOM
      1 C         142.2970  137.6868  161.1624 C.3     1  UNL1        0.0331
      2 C         142.7337  139.1160  161.0332 C.2     1  UNL1        0.0033
      3 C         142.6568  140.0336  162.2172 C.2     1  UNL1       -0.0029
      4 C         143.0935  141.4629  162.0880 C.3     1  UNL1        0.1368
      5 C         143.6070  141.9744  160.7749 C.2     1  UNL1        0.0771
      6 C         143.6840  141.0567  159.5908 C.2     1  UNL1        0.0435
      7 C         143.2473  139.6275  159.7200 C.2     1  UNL1        0.1369
      8 F         143.3242  138.7099  158.5359 F       1  UNL1       -0.2045
      9 N         143.9633  143.4211  160.9483 N.am    1  UNL1       -0.1645
     10 C         143.6698  143.8037  162.3687 C.2     1  UNL1        0.3277
     11 O         143.8776  145.1587  162.9778 O.2     1  UNL1       -0.2504
     12 N         143.1323  142.5934  163.0731 N.am    1  UNL1       -0.2569
     13 C         142.7080  142.5256  164.5103 C.3     1  UNL1        0.0803
     14 C         141.2507  142.4608  164.8598 C.3     1  UNL1        0.0372
     15 C         140.8263  142.3930  166.2969 C.3     1  UNL1        0.0738
     16 N         141.8593  142.3899  167.3845 N.3     1  UNL1       -0.2737
     17 C         143.3166  142.4547  167.0350 C.3     1  UNL1        0.0738
     18 C         143.7410  142.5225  165.5979 C.3     1  UNL1        0.0372
     19 C         141.4350  142.3221  168.8216 C.3     1  UNL1        0.0625
     20 C         140.3208  143.1958  169.3167 C.3     1  UNL1        0.0481
     21 C         139.8964  143.1281  170.7539 C.3     1  UNL1        0.1435
     22 O         140.5864  142.1865  171.6959 O.3     1  UNL1       -0.3537
     23 C         141.7006  141.3128  171.2009 C.3     1  UNL1        0.1435
     24 C         142.1249  141.3805  169.7638 C.3     1  UNL1        0.0481
@<TRIPOS>BOND
     1     1     2    1
     2     2     3    2
     3     3     4    1
     4     4     5    1
     5     5     6    1
     6     6     7    2
     7     7     8    1
     8     5     9    2
     9     9    10    1
    10    10    11    2
    11    10    12   am
    12    12    13    1
    13    13    14    1
    14    14    15    1
    15    15    16    1
    16    16    19    1
    17    19    20    1
    18    20    21    1
    19    21    22    1
    20    22    23    1
    21    23    24    1
    22    16    17    1
    23    17    18    1
    24     7     2    1
    25    18    13    1
    26    12     4    1
    27    24    19    1
@<TRIPOS>MOLECULE
*****
 24 27 0 0 0
SMALL
GASTEIGER

@<TRIPOS>ATOM
      1 C         143.7744  142.3715  169.7677 C.3     1  UNL1        0.0331
      2 C         142.5457  141.6061  169.3748 C.2     1  UNL1        0.0033
      3 C         142.0470  141.6625  167.9612 C.2     1  UNL1       -0.0029
      4 C         140.8183  140.8970  167.5683 C.3     1  UNL1        0.1368
      5 C         140.0883  140.0752  168.5888 C.2     1  UNL1        0.0771
      6 C         140.5870  140.0187  170.0023 C.2     1  UNL1        0.0435
      7 C         141.8157  140.7842  170.3953 C.2     1  UNL1        0.1369
      8 F         142.3143  140.7277  171.8089 F       1  UNL1       -0.2045
      9 N         138.9143  139.4319  167.9122 N.am    1  UNL1       -0.1645
     10 C         138.9187  139.8562  166.4734 C.2     1  UNL1        0.3277
     11 O         137.9214  139.4468  165.4304 O.2     1  UNL1       -0.2504
     12 N         140.0955  140.7617  166.2608 N.am    1  UNL1       -0.2569
     13 C         140.4816  141.4169  164.9679 C.3     1  UNL1        0.0803
     14 C         141.0725  140.5976  163.8591 C.3     1  UNL1        0.0372
     15 C         141.4587  141.2527  162.5662 C.3     1  UNL1        0.0738
     16 N         141.2539  142.7272  162.3821 N.3     1  UNL1       -0.2737
     17 C         140.6629  143.5465  163.4909 C.3     1  UNL1        0.0738
     18 C         140.2768  142.8914  164.7838 C.3     1  UNL1        0.0372
     19 C         141.6400  143.3823  161.0892 C.3     1  UNL1        0.0625
     20 C         140.9690  144.6545  160.6634 C.3     1  UNL1        0.0481
     21 C         141.3551  145.3098  159.3705 C.3     1  UNL1        0.1435
     22 O         142.4122  144.6928  158.5034 O.3     1  UNL1       -0.3537
     23 C         143.0832  143.4207  158.9292 C.3     1  UNL1        0.1435
     24 C         142.6971  142.7654  160.2220 C.3     1  UNL1        0.0481
@<TRIPOS>BOND
     1     1     2    1
     2     2     3    2
     3     3     4    1
     4     4     5    1
     5     5     6    1
     6     6     7    2
     7     7     8    1
     8     5     9    2
     9     9    10    1
    10    10    11    2
    11    10    12   am
    12    12    13    1
    13    13    14    1
    14    14    15    1
    15    15    16    1
    16    16    19    1
    17    19    20    1
    18    20    21    1
    19    21    22    1
    20    22    23    1
    21    23    24    1
    22    16    17    1
    23    17    18    1
    24     7     2    1
    25    18    13    1
    26    12     4    1
    27    24    19    1
@<TRIPOS>MOLECULE
*****
 24 27 0 0 0
SMALL
GASTEIGER

@<TRIPOS>ATOM
      1 C         143.8124  137.8482  161.3371 C.3     1  UNL1        0.0331
      2 C         142.4552  138.4416  161.1007 C.2     1  UNL1        0.0033
      3 C         141.7105  139.0850  162.2327 C.2     1  UNL1       -0.0029
      4 C         140.3533  139.6785  161.9963 C.3     1  UNL1        0.1368
      5 C         139.7409  139.6286  160.6280 C.2     1  UNL1        0.0771
      6 C         140.4856  138.9852  159.4960 C.2     1  UNL1        0.0435
      7 C         141.8428  138.3917  159.7324 C.2     1  UNL1        0.1369
      8 F         142.5875  137.7483  158.6003 F       1  UNL1       -0.2045
      9 N         138.3975  140.2923  160.6969 N.am    1  UNL1       -0.1645
     10 C         138.1796  140.7524  162.1079 C.2     1  UNL1        0.3277
     11 O         136.9660  141.4665  162.6250 O.2     1  UNL1       -0.2504
     12 N         139.3884  140.3731  162.9110 N.am    1  UNL1       -0.2569
     13 C         139.5959  140.6412  164.3722 C.3     1  UNL1        0.0803
     14 C         140.0935  141.9817  164.8254 C.3     1  UNL1        0.0372
     15 C         140.3010  142.2499  166.2866 C.3     1  UNL1        0.0738
     16 N         140.0109  141.1775  167.2945 N.3     1  UNL1       -0.2737
     17 C         139.5132  139.8370  166.8412 C.3     1  UNL1        0.0738
     18 C         139.3057  139.5688  165.3801 C.3     1  UNL1        0.0372
     19 C         140.2183  141.4457  168.7557 C.3     1  UNL1        0.0625
     20 C         140.2254  142.8562  169.2657 C.3     1  UNL1        0.0481
     21 C         140.4329  143.1245  170.7269 C.3     1  UNL1        0.1435
     22 O         140.6333  141.9820  171.6780 O.3     1  UNL1       -0.3537
     23 C         140.6262  140.5714  171.1680 C.3     1  UNL1        0.1435
     24 C         140.4187  140.3032  169.7069 C.3     1  UNL1        0.0481
@<TRIPOS>BOND
     1     1     2    1
     2     2     3    2
     3     3     4    1
     4     4     5    1
     5     5     6    1
     6     6     7    2
     7     7     8    1
     8     5     9    2
     9     9    10    1
    10    10    11    2
    11    10    12   am
    12    12    13    1
    13    13    14    1
    14    14    15    1
    15    15    16    1
    16    16    19    1
    17    19    20    1
    18    20    21    1
    19    21    22    1
    20    22    23    1
    21    23    24    1
    22    16    17    1
    23    17    18    1
    24     7     2    1
    25    18    13    1
    26    12     4    1
    27    24    19    1
@<TRIPOS>MOLECULE
*****
 24 27 0 0 0
SMALL
GASTEIGER

@<TRIPOS>ATOM
      1 C         140.3506  144.0743  169.9538 C.3     1  UNL1        0.0331
      2 C         140.9970  142.7650  169.6101 C.2     1  UNL1        0.0033
      3 C         141.3946  142.4740  168.1934 C.2     1  UNL1       -0.0029
      4 C         142.0410  141.1647  167.8497 C.3     1  UNL1        0.1368
      5 C         142.2898  140.1466  168.9227 C.2     1  UNL1        0.0771
      6 C         141.8923  140.4377  170.3395 C.2     1  UNL1        0.0435
      7 C         141.2458  141.7469  170.6831 C.2     1  UNL1        0.1369
      8 F         140.8483  142.0380  172.1000 F       1  UNL1       -0.2045
      9 N         142.9400  138.9533  168.2877 N.am    1  UNL1       -0.1645
     10 C         143.0930  139.2339  166.8221 C.2     1  UNL1        0.3277
     11 O         143.6958  138.3099  165.8057 O.2     1  UNL1       -0.2504
     12 N         142.5374  140.6007  166.5514 N.am    1  UNL1       -0.2569
     13 C         142.4870  141.2835  165.2168 C.3     1  UNL1        0.0803
     14 C         141.2287  141.2442  164.4013 C.3     1  UNL1        0.0372
     15 C         141.1782  141.9270  163.0667 C.3     1  UNL1        0.0738
     16 N         142.3861  142.6491  162.5476 N.3     1  UNL1       -0.2737
     17 C         143.6444  142.6884  163.3631 C.3     1  UNL1        0.0738
     18 C         143.6949  142.0056  164.6977 C.3     1  UNL1        0.0372
     19 C         142.3357  143.3319  161.2130 C.3     1  UNL1        0.0625
     20 C         141.4300  144.5097  161.0068 C.3     1  UNL1        0.0481
     21 C         141.3795  145.1926  159.6722 C.3     1  UNL1        0.1435
     22 O         142.2348  144.6976  158.5437 O.3     1  UNL1       -0.3537
     23 C         143.1405  143.5198  158.7498 C.3     1  UNL1        0.1435
     24 C         143.1910  142.8370  160.0844 C.3     1  UNL1        0.0481
@<TRIPOS>BOND
     1     1     2    1
     2     2     3    2
     3     3     4    1
     4     4     5    1
     5     5     6    1
     6     6     7    2
     7     7     8    1
     8     5     9    2
     9     9    10    1
    10    10    11    2
    11    10    12   am
    12    12    13    1
    13    13    14    1
    14    14    15    1
    15    15    16    1
    16    16    19    1
    17    19    20    1
    18    20    21    1
    19    21    22    1
    20    22    23    1
    21    23    24    1
    22    16    17    1
    23    17    18    1
    24     7     2    1
    25    18    13    1
    26    12     4    1
    27    24    19    1
@<TRIPOS>MOLECULE
*****
 24 27 0 0 0
SMALL
GASTEIGER

@<TRIPOS>ATOM
      1 C         142.0818  138.4816  160.3216 C.3     1  UNL1        0.0331
      2 C         141.1388  139.6481  160.3245 C.2     1  UNL1        0.0033
      3 C         140.7246  140.2745  161.6230 C.2     1  UNL1       -0.0029
      4 C         139.7817  141.4410  161.6258 C.3     1  UNL1        0.1368
      5 C         139.2529  141.9812  160.3303 C.2     1  UNL1        0.0771
      6 C         139.6671  141.3548  159.0318 C.2     1  UNL1        0.0435
      7 C         140.6100  140.1882  159.0289 C.2     1  UNL1        0.1369
      8 F         141.0242  139.5619  157.7304 F       1  UNL1       -0.2045
      9 N         138.3443  143.1326  160.6445 N.am    1  UNL1       -0.1645
     10 C         138.3115  143.3040  162.1343 C.2     1  UNL1        0.3277
     11 O         137.5280  144.3392  162.8857 O.2     1  UNL1       -0.2504
     12 N         139.1999  142.2586  162.7409 N.am    1  UNL1       -0.2569
     13 C         139.4607  142.0648  164.2052 C.3     1  UNL1        0.0803
     14 C         140.0766  143.1705  165.0101 C.3     1  UNL1        0.0372
     15 C         140.3374  142.9768  166.4745 C.3     1  UNL1        0.0738
     16 N         139.9823  141.6771  167.1339 N.3     1  UNL1       -0.2737
     17 C         139.3664  140.5714  166.3290 C.3     1  UNL1        0.0738
     18 C         139.1056  140.7651  164.8647 C.3     1  UNL1        0.0372
     19 C         140.2431  141.4833  168.5983 C.3     1  UNL1        0.0625
     20 C         140.9505  142.5491  169.3816 C.3     1  UNL1        0.0481
     21 C         141.2114  142.3553  170.8461 C.3     1  UNL1        0.1435
     22 O         140.7648  141.0956  171.5271 O.3     1  UNL1       -0.3537
     23 C         140.0573  140.0298  170.7438 C.3     1  UNL1        0.1435
     24 C         139.7965  140.2236  169.2794 C.3     1  UNL1        0.0481
@<TRIPOS>BOND
     1     1     2    1
     2     2     3    2
     3     3     4    1
     4     4     5    1
     5     5     6    1
     6     6     7    2
     7     7     8    1
     8     5     9    2
     9     9    10    1
    10    10    11    2
    11    10    12   am
    12    12    13    1
    13    13    14    1
    14    14    15    1
    15    15    16    1
    16    16    19    1
    17    19    20    1
    18    20    21    1
    19    21    22    1
    20    22    23    1
    21    23    24    1
    22    16    17    1
    23    17    18    1
    24     7     2    1
    25    18    13    1
    26    12     4    1
    27    24    19    1
@<TRIPOS>MOLECULE
*****
 24 27 0 0 0
SMALL
GASTEIGER

@<TRIPOS>ATOM
      1 C         139.6181  146.2591  161.5179 C.3     1  UNL1        0.0331
      2 C         140.6325  145.1832  161.2662 C.2     1  UNL1        0.0033
      3 C         141.0451  144.2662  162.3791 C.2     1  UNL1       -0.0029
      4 C         142.0595  143.1902  162.1273 C.3     1  UNL1        0.1368
      5 C         142.6612  143.0312  160.7626 C.2     1  UNL1        0.0771
      6 C         142.2485  143.9482  159.6496 C.2     1  UNL1        0.0435
      7 C         141.2342  145.0242  159.9014 C.2     1  UNL1        0.1369
      8 F         140.8215  145.9412  158.7883 F       1  UNL1       -0.2045
      9 N         143.6307  141.8878  160.8137 N.am    1  UNL1       -0.1645
     10 C         143.6282  141.3401  162.2102 C.2     1  UNL1        0.3277
     11 O         144.4521  140.1894  162.7074 O.2     1  UNL1       -0.2504
     12 N         142.6571  142.1450  163.0221 N.am    1  UNL1       -0.2569
     13 C         142.3395  141.9406  164.4737 C.3     1  UNL1        0.0803
     14 C         141.0329  141.3232  164.8758 C.3     1  UNL1        0.0372
     15 C         140.7152  141.1188  166.3274 C.3     1  UNL1        0.0738
     16 N         141.7041  141.5319  167.3770 N.3     1  UNL1       -0.2737
     17 C         143.0106  142.1493  166.9748 C.3     1  UNL1        0.0738
     18 C         143.3283  142.3537  165.5232 C.3     1  UNL1        0.0372
     19 C         141.3864  141.3275  168.8286 C.3     1  UNL1        0.0625
     20 C         140.4390  140.2410  169.2433 C.3     1  UNL1        0.0481
     21 C         140.1212  140.0366  170.6950 C.3     1  UNL1        0.1435
     22 O         140.7510  140.9187  171.7320 O.3     1  UNL1       -0.3537
     23 C         141.6984  142.0052  171.3173 C.3     1  UNL1        0.1435
     24 C         142.0161  142.2096  169.8657 C.3     1  UNL1        0.0481
@<TRIPOS>BOND
     1     1     2    1
     2     2     3    2
     3     3     4    1
     4     4     5    1
     5     5     6    1
     6     6     7    2
     7     7     8    1
     8     5     9    2
     9     9    10    1
    10    10    11    2
    11    10    12   am
    12    12    13    1
    13    13    14    1
    14    14    15    1
    15    15    16    1
    16    16    19    1
    17    19    20    1
    18    20    21    1
    19    21    22    1
    20    22    23    1
    21    23    24    1
    22    16    17    1
    23    17    18    1
    24     7     2    1
    25    18    13    1
    26    12     4    1
    27    24    19    1
@<TRIPOS>MOLECULE
*****
 24 27 0 0 0
SMALL
GASTEIGER

@<TRIPOS>ATOM
      1 C         138.6792  138.4764  161.0189 C.3     1  UNL1        0.0331
      2 C         140.1328  138.8458  161.0464 C.2     1  UNL1        0.0033
      3 C         140.7471  139.3799  162.3063 C.2     1  UNL1       -0.0029
      4 C         142.2007  139.7492  162.3338 C.3     1  UNL1        0.1368
      5 C         143.0399  139.5846  161.1015 C.2     1  UNL1        0.0771
      6 C         142.4255  139.0505  159.8417 C.2     1  UNL1        0.0435
      7 C         140.9719  138.6811  159.8141 C.2     1  UNL1        0.1369
      8 F         140.3576  138.1470  158.5542 F       1  UNL1       -0.2045
      9 N         144.4346  140.0297  161.4277 N.am    1  UNL1       -0.1645
     10 C         144.4575  140.4696  162.8616 C.2     1  UNL1        0.3277
     11 O         145.6515  140.9912  163.6048 O.2     1  UNL1       -0.2504
     12 N         143.0769  140.2962  163.4216 N.am    1  UNL1       -0.2569
     13 C         142.6477  140.6141  164.8233 C.3     1  UNL1        0.0803
     14 C         142.9255  139.6419  165.9314 C.3     1  UNL1        0.0372
     15 C         142.4963  139.9596  167.3331 C.3     1  UNL1        0.0738
     16 N         141.7893  141.2496  167.6267 N.3     1  UNL1       -0.2737
     17 C         141.5116  142.2217  166.5187 C.3     1  UNL1        0.0738
     18 C         141.9407  141.9040  165.1170 C.3     1  UNL1        0.0372
     19 C         141.3602  141.5674  169.0284 C.3     1  UNL1        0.0625
     20 C         141.9434  140.8065  170.1821 C.3     1  UNL1        0.0481
     21 C         141.5142  141.1243  171.5839 C.3     1  UNL1        0.1435
     22 O         140.5018  142.2029  171.8319 O.3     1  UNL1       -0.3537
     23 C         139.9186  142.9638  170.6783 C.3     1  UNL1        0.1435
     24 C         140.3477  142.6461  169.2766 C.3     1  UNL1        0.0481
@<TRIPOS>BOND
     1     1     2    1
     2     2     3    2
     3     3     4    1
     4     4     5    1
     5     5     6    1
     6     6     7    2
     7     7     8    1
     8     5     9    2
     9     9    10    1
    10    10    11    2
    11    10    12   am
    12    12    13    1
    13    13    14    1
    14    14    15    1
    15    15    16    1
    16    16    19    1
    17    19    20    1
    18    20    21    1
    19    21    22    1
    20    22    23    1
    21    23    24    1
    22    16    17    1
    23    17    18    1
    24     7     2    1
    25    18    13    1
    26    12     4    1
    27    24    19    1
