@<TRIPOS>MOLECULE
*****
 43 46 0 0 0
SMALL
GASTEIGER

@<TRIPOS>ATOM
      1 C         140.7047  140.5348  163.1460 C.3     1  UNL1        0.0799
      2 C         140.3735  140.4656  164.6073 C.ar    1  UNL1        0.0374
      3 C         140.6405  141.6460  165.4936 C.ar    1  UNL1        0.0023
      4 C         140.3093  141.5769  166.9549 C.ar    1  UNL1        0.0181
      5 C         140.5764  142.7573  167.8411 C.ar    1  UNL1        0.0082
      6 C         140.2452  142.6881  169.3025 C.ar    1  UNL1        0.0347
      7 BR        140.5123  143.8685  170.1887 Br      1  UNL1       -0.0490
      8 C         139.6469  141.4386  169.8776 C.ar    1  UNL1        0.0082
      9 C         139.3798  140.2583  168.9914 C.ar    1  UNL1        0.0197
     10 C         139.7110  140.3274  167.5300 C.ar    1  UNL1        0.0844
     11 N         139.4439  139.1470  166.6438 N.ar    1  UNL1       -0.2119
     12 C         139.7752  139.2161  165.1825 C.ar    1  UNL1        0.2211
     13 O         139.5081  138.0357  164.2962 O.3     1  UNL1       -0.4563
     14 C         140.6289  137.0703  164.5446 C.3     1  UNL1        0.2542
     15 C         141.8324  139.7148  162.5929 C.ar    1  UNL1        0.0148
     16 C         143.1568  139.6896  163.2967 C.ar    1  UNL1       -0.0014
     17 C         144.2845  138.8696  162.7436 C.ar    1  UNL1        0.0029
     18 C         144.0878  138.0748  161.4868 C.ar    1  UNL1        0.0392
     19 C         142.7634  138.1000  160.7830 C.ar    1  UNL1        0.1657
     20 C         141.6357  138.9200  161.3361 C.ar    1  UNL1        0.1702
     21 F         140.3113  138.9452  160.6324 F       1  UNL1       -0.2013
     22 O         142.5667  137.3052  159.5262 O.3     1  UNL1       -0.4692
     23 C         142.6024  137.9903  158.1923 C.3     1  UNL1        0.2526
     24 C         139.9082  141.4239  162.2377 C.3     1  UNL1        0.1162
     25 O         138.6816  140.6053  162.5119 O.3     1  UNL1       -0.3820
     26 H         137.9316  140.9709  162.0173 H       1  UNL1        0.2107
     27 C         142.9005  143.1600  160.2929 C.ar    1  UNL1        0.2272
     28 C         141.6739  142.3413  160.5672 C.ar    1  UNL1        0.0559
     29 C         141.1348  142.2426  161.9634 C.ar    1  UNL1        0.0117
     30 C         141.8223  142.9625  163.0854 C.ar    1  UNL1        0.0560
     31 C         143.0489  143.7812  162.8112 C.ar    1  UNL1        0.2319
     32 N         143.5880  143.8799  161.4149 N.ar    1  UNL1       -0.1766
     33 C         144.7042  142.5409  158.5284 C.3     1  UNL1        0.2542
     34 O         143.4396  143.2587  158.8966 O.3     1  UNL1       -0.4561
     35 O         143.7364  144.5012  163.9333 O.3     1  UNL1       -0.4067
     36 C         144.3254  143.7244  165.0734 C.3     1  UNL1        0.5097
     37 F         143.9671  142.2801  165.2612 F       1  UNL1       -0.1549
     38 F         145.2727  144.3922  166.0257 F       1  UNL1       -0.1549
     39 C         139.1117  142.3131  161.3294 C.3     1  UNL1        0.0491
     40 C         138.0354  143.1918  161.8948 C.3     1  UNL1        0.0750
     41 N         138.3696  144.1995  162.9545 N.3     1  UNL1       -0.2702
     42 C         137.9099  143.9842  164.3659 C.3     1  UNL1        0.0897
     43 C         139.1637  145.4226  162.6026 C.3     1  UNL1        0.0897
@<TRIPOS>BOND
     1    33    34    1
     2    34    27    1
     3    27    28   ar
     4    28    29   ar
     5    29    24    1
     6    24    25    1
     7    24    39    1
     8    39    40    1
     9    40    41    1
    10    41    42    1
    11    41    43    1
    12    24     1    1
    13     1     2    1
    14     2     3   ar
    15     3     4   ar
    16     4     5   ar
    17     5     6   ar
    18     6     7    1
    19     6     8   ar
    20     8     9   ar
    21     9    10   ar
    22    10    11   ar
    23    11    12   ar
    24    12    13    1
    25    13    14    1
    26     1    15    1
    27    15    16   ar
    28    16    17   ar
    29    17    18   ar
    30    18    19   ar
    31    19    22    1
    32    22    23    1
    33    19    20   ar
    34    20    21    1
    35    29    30   ar
    36    30    31   ar
    37    31    35    1
    38    35    36    1
    39    36    37    1
    40    36    38    1
    41    31    32   ar
    42    32    27   ar
    43    12     2   ar
    44    20    15   ar
    45    10     4   ar
    46    25    26    1
@<TRIPOS>MOLECULE
*****
 43 46 0 0 0
SMALL
GASTEIGER

@<TRIPOS>ATOM
      1 C         141.3280  140.9841  162.8067 C.3     1  UNL1        0.0799
      2 C         141.3935  140.6969  164.2776 C.ar    1  UNL1        0.0374
      3 C         140.9683  141.7425  165.2655 C.ar    1  UNL1        0.0023
      4 C         141.0338  141.4554  166.7363 C.ar    1  UNL1        0.0181
      5 C         140.6087  142.5010  167.7242 C.ar    1  UNL1        0.0082
      6 C         140.6742  142.2138  169.1951 C.ar    1  UNL1        0.0347
      7 BR        140.2490  143.2594  170.1830 Br      1  UNL1       -0.0490
      8 C         141.1648  140.8812  169.6779 C.ar    1  UNL1        0.0082
      9 C         141.5900  139.8356  168.6900 C.ar    1  UNL1        0.0197
     10 C         141.5245  140.1227  167.2192 C.ar    1  UNL1        0.0844
     11 N         141.9496  139.0771  166.2313 N.ar    1  UNL1       -0.2119
     12 C         141.8841  139.3642  164.7604 C.ar    1  UNL1        0.2211
     13 O         142.3093  138.3186  163.7725 O.3     1  UNL1       -0.4563
     14 C         141.2019  137.3074  163.7385 C.3     1  UNL1        0.2542
     15 C         140.2080  140.4225  161.9821 C.ar    1  UNL1        0.0148
     16 C         138.7839  140.7001  162.3629 C.ar    1  UNL1       -0.0014
     17 C         137.6639  140.1385  161.5382 C.ar    1  UNL1        0.0029
     18 C         137.9679  139.2992  160.3327 C.ar    1  UNL1        0.0392
     19 C         139.3919  139.0215  159.9519 C.ar    1  UNL1        0.1657
     20 C         140.5120  139.5832  160.7767 C.ar    1  UNL1        0.1702
     21 F         141.9360  139.3055  160.3959 F       1  UNL1       -0.2013
     22 O         139.6960  138.1822  158.7465 O.3     1  UNL1       -0.4692
     23 C         140.0248  138.8392  157.4388 C.3     1  UNL1        0.2526
     24 C         142.3826  141.8328  162.1606 C.3     1  UNL1        0.1162
     25 O         143.4158  140.7942  162.4825 O.3     1  UNL1       -0.3820
     26 H         144.2814  141.0878  162.1580 H       1  UNL1        0.2107
     27 C         139.9773  144.2133  160.0874 C.ar    1  UNL1        0.2272
     28 C         141.0105  143.1746  160.4093 C.ar    1  UNL1        0.0559
     29 C         141.3493  142.8715  161.8387 C.ar    1  UNL1        0.0117
     30 C         140.6550  143.6071  162.9463 C.ar    1  UNL1        0.0560
     31 C         139.6218  144.6458  162.6244 C.ar    1  UNL1        0.2319
     32 N         139.2829  144.9489  161.1949 N.ar    1  UNL1       -0.1766
     33 C         140.5382  145.3992  157.8448 C.3     1  UNL1        0.2542
     34 O         139.6385  144.5163  158.6579 O.3     1  UNL1       -0.4561
     35 O         138.9274  145.3815  163.7320 O.3     1  UNL1       -0.4067
     36 C         138.4674  144.6397  164.9519 C.3     1  UNL1        0.5097
     37 F         137.9737  143.2286  164.8300 F       1  UNL1       -0.1549
     38 F         138.5011  145.3092  166.2939 F       1  UNL1       -0.1549
     39 C         143.4371  142.6816  161.5145 C.3     1  UNL1        0.0491
     40 C         144.5556  143.2456  162.3398 C.3     1  UNL1        0.0750
     41 N         144.2780  143.7813  163.7131 N.3     1  UNL1       -0.2702
     42 C         144.5833  142.9450  164.9202 C.3     1  UNL1        0.0897
     43 C         143.6950  145.1535  163.8792 C.3     1  UNL1        0.0897
@<TRIPOS>BOND
     1    33    34    1
     2    34    27    1
     3    27    28   ar
     4    28    29   ar
     5    29    24    1
     6    24    25    1
     7    24    39    1
     8    39    40    1
     9    40    41    1
    10    41    42    1
    11    41    43    1
    12    24     1    1
    13     1     2    1
    14     2     3   ar
    15     3     4   ar
    16     4     5   ar
    17     5     6   ar
    18     6     7    1
    19     6     8   ar
    20     8     9   ar
    21     9    10   ar
    22    10    11   ar
    23    11    12   ar
    24    12    13    1
    25    13    14    1
    26     1    15    1
    27    15    16   ar
    28    16    17   ar
    29    17    18   ar
    30    18    19   ar
    31    19    22    1
    32    22    23    1
    33    19    20   ar
    34    20    21    1
    35    29    30   ar
    36    30    31   ar
    37    31    35    1
    38    35    36    1
    39    36    37    1
    40    36    38    1
    41    31    32   ar
    42    32    27   ar
    43    12     2   ar
    44    20    15   ar
    45    10     4   ar
    46    25    26    1
@<TRIPOS>MOLECULE
*****
 43 46 0 0 0
SMALL
GASTEIGER

@<TRIPOS>ATOM
      1 C         141.5424  140.5774  163.0128 C.3     1  UNL1        0.0799
      2 C         141.8700  140.6874  164.4725 C.ar    1  UNL1        0.0374
      3 C         141.1405  141.6766  165.3323 C.ar    1  UNL1        0.0023
      4 C         141.4680  141.7867  166.7920 C.ar    1  UNL1        0.0181
      5 C         140.7385  142.7758  167.6518 C.ar    1  UNL1        0.0082
      6 C         141.0661  142.8859  169.1115 C.ar    1  UNL1        0.0347
      7 BR        140.3366  143.8750  169.9714 Br      1  UNL1       -0.0490
      8 C         142.1232  142.0068  169.7113 C.ar    1  UNL1        0.0082
      9 C         142.8527  141.0176  168.8514 C.ar    1  UNL1        0.0197
     10 C         142.5251  140.9075  167.3918 C.ar    1  UNL1        0.0844
     11 N         143.2546  139.9184  166.5319 N.ar    1  UNL1       -0.2119
     12 C         142.9270  139.8083  165.0722 C.ar    1  UNL1        0.2211
     13 O         143.6565  138.8192  164.2124 O.3     1  UNL1       -0.4563
     14 C         145.0036  139.4210  163.9418 C.3     1  UNL1        0.2542
     15 C         142.4495  141.1974  161.9917 C.ar    1  UNL1        0.0148
     16 C         142.8486  142.6377  162.1190 C.ar    1  UNL1       -0.0014
     17 C         143.7557  143.2577  161.0980 C.ar    1  UNL1        0.0029
     18 C         144.2639  142.4374  159.9495 C.ar    1  UNL1        0.0392
     19 C         143.8648  140.9971  159.8222 C.ar    1  UNL1        0.1657
     20 C         142.9576  140.3771  160.8433 C.ar    1  UNL1        0.1702
     21 F         142.5586  138.9368  160.7160 F       1  UNL1       -0.2013
     22 O         144.3729  140.1768  158.6738 O.3     1  UNL1       -0.4692
     23 C         143.4634  139.8468  157.5276 C.3     1  UNL1        0.2526
     24 C         140.3076  139.8473  162.5742 C.3     1  UNL1        0.1162
     25 O         140.8964  138.5575  163.0636 O.3     1  UNL1       -0.3820
     26 H         140.2705  137.8343  162.9017 H       1  UNL1        0.2107
     27 C         138.9844  142.6743  160.1232 C.ar    1  UNL1        0.2272
     28 C         139.5732  141.3844  160.6126 C.ar    1  UNL1        0.0559
     29 C         139.7187  141.1372  162.0849 C.ar    1  UNL1        0.0117
     30 C         139.2754  142.1799  163.0678 C.ar    1  UNL1        0.0560
     31 C         138.6865  143.4698  162.5785 C.ar    1  UNL1        0.2319
     32 N         138.5410  143.7170  161.1062 N.ar    1  UNL1       -0.1766
     33 C         138.0420  141.9720  157.8061 C.3     1  UNL1        0.2542
     34 O         138.8389  142.9215  158.6509 O.3     1  UNL1       -0.4561
     35 O         138.2432  144.5125  163.5615 O.3     1  UNL1       -0.4067
     36 C         139.1142  144.8572  164.7331 C.3     1  UNL1        0.5097
     37 F         138.4923  145.2165  166.0499 F       1  UNL1       -0.1549
     38 F         140.6071  144.8427  164.5877 F       1  UNL1       -0.1549
     39 C         139.0728  139.1173  162.1357 C.3     1  UNL1        0.0491
     40 C         138.4121  138.1383  163.0604 C.3     1  UNL1        0.0750
     41 N         138.4743  138.3488  164.5443 N.3     1  UNL1       -0.2702
     42 C         138.9263  137.2350  165.4415 C.3     1  UNL1        0.0897
     43 C         138.0844  139.6732  165.1309 C.3     1  UNL1        0.0897
@<TRIPOS>BOND
     1    33    34    1
     2    34    27    1
     3    27    28   ar
     4    28    29   ar
     5    29    24    1
     6    24    25    1
     7    24    39    1
     8    39    40    1
     9    40    41    1
    10    41    42    1
    11    41    43    1
    12    24     1    1
    13     1     2    1
    14     2     3   ar
    15     3     4   ar
    16     4     5   ar
    17     5     6   ar
    18     6     7    1
    19     6     8   ar
    20     8     9   ar
    21     9    10   ar
    22    10    11   ar
    23    11    12   ar
    24    12    13    1
    25    13    14    1
    26     1    15    1
    27    15    16   ar
    28    16    17   ar
    29    17    18   ar
    30    18    19   ar
    31    19    22    1
    32    22    23    1
    33    19    20   ar
    34    20    21    1
    35    29    30   ar
    36    30    31   ar
    37    31    35    1
    38    35    36    1
    39    36    37    1
    40    36    38    1
    41    31    32   ar
    42    32    27   ar
    43    12     2   ar
    44    20    15   ar
    45    10     4   ar
    46    25    26    1
@<TRIPOS>MOLECULE
*****
 43 46 0 0 0
SMALL
GASTEIGER

@<TRIPOS>ATOM
      1 C         141.2143  141.8690  164.6285 C.3     1  UNL1        0.0799
      2 C         142.0913  142.0688  163.4281 C.ar    1  UNL1        0.0374
      3 C         141.9134  141.2022  162.2168 C.ar    1  UNL1        0.0023
      4 C         142.7904  141.4020  161.0163 C.ar    1  UNL1        0.0181
      5 C         142.6125  140.5353  159.8050 C.ar    1  UNL1        0.0082
      6 C         143.4895  140.7351  158.6046 C.ar    1  UNL1        0.0347
      7 BR        143.3116  139.8685  157.3932 Br      1  UNL1       -0.0490
      8 C         144.5443  141.8015  158.6155 C.ar    1  UNL1        0.0082
      9 C         144.7222  142.6681  159.8268 C.ar    1  UNL1        0.0197
     10 C         143.8452  142.4684  161.0272 C.ar    1  UNL1        0.0844
     11 N         144.0231  143.3350  162.2385 N.ar    1  UNL1       -0.2119
     12 C         143.1461  143.1352  163.4390 C.ar    1  UNL1        0.2211
     13 O         143.3240  144.0018  164.6503 O.3     1  UNL1       -0.4563
     14 C         144.5670  143.5106  165.3312 C.3     1  UNL1        0.2542
     15 C         141.7479  141.1593  165.8375 C.ar    1  UNL1        0.0148
     16 C         142.4212  139.8272  165.6888 C.ar    1  UNL1       -0.0014
     17 C         142.9548  139.1175  166.8977 C.ar    1  UNL1        0.0029
     18 C         142.8152  139.7400  168.2554 C.ar    1  UNL1        0.0392
     19 C         142.1420  141.0721  168.4040 C.ar    1  UNL1        0.1657
     20 C         141.6083  141.7818  167.1950 C.ar    1  UNL1        0.1702
     21 F         140.9350  143.1139  167.3436 F       1  UNL1       -0.2013
     22 O         142.0023  141.6946  169.7616 O.3     1  UNL1       -0.4692
     23 C         142.8558  142.8686  170.1397 C.3     1  UNL1        0.2526
     24 C         139.8037  142.3790  164.6200 C.3     1  UNL1        0.1162
     25 O         140.3119  143.7826  164.4736 O.3     1  UNL1       -0.3820
     26 H         139.5615  144.3961  164.4369 H       1  UNL1        0.2107
     27 C         138.2937  139.0876  166.2439 C.ar    1  UNL1        0.2272
     28 C         138.8020  140.4913  166.0976 C.ar    1  UNL1        0.0559
     29 C         139.2954  140.9753  164.7663 C.ar    1  UNL1        0.0117
     30 C         139.2804  140.0557  163.5814 C.ar    1  UNL1        0.0560
     31 C         138.7721  138.6521  163.7278 C.ar    1  UNL1        0.2319
     32 N         138.2788  138.1680  165.0590 N.ar    1  UNL1       -0.1766
     33 C         136.8019  137.4863  167.6441 C.3     1  UNL1        0.2542
     34 O         137.8004  138.6036  167.5753 O.3     1  UNL1       -0.4561
     35 O         138.7572  137.7324  162.5428 O.3     1  UNL1       -0.4067
     36 C         139.6560  138.0024  161.3726 C.3     1  UNL1        0.5097
     37 F         141.1333  137.7719  161.4927 F       1  UNL1       -0.1549
     38 F         139.0774  138.5028  160.0823 F       1  UNL1       -0.1549
     39 C         138.3930  142.8889  164.6114 C.3     1  UNL1        0.0491
     40 C         137.9407  143.8258  163.5308 C.3     1  UNL1        0.0750
     41 N         138.5097  143.7063  162.1480 N.3     1  UNL1       -0.2702
     42 C         139.4834  144.7311  161.6465 C.3     1  UNL1        0.0897
     43 C         138.1049  142.5619  161.2668 C.3     1  UNL1        0.0897
@<TRIPOS>BOND
     1    33    34    1
     2    34    27    1
     3    27    28   ar
     4    28    29   ar
     5    29    24    1
     6    24    25    1
     7    24    39    1
     8    39    40    1
     9    40    41    1
    10    41    42    1
    11    41    43    1
    12    24     1    1
    13     1     2    1
    14     2     3   ar
    15     3     4   ar
    16     4     5   ar
    17     5     6   ar
    18     6     7    1
    19     6     8   ar
    20     8     9   ar
    21     9    10   ar
    22    10    11   ar
    23    11    12   ar
    24    12    13    1
    25    13    14    1
    26     1    15    1
    27    15    16   ar
    28    16    17   ar
    29    17    18   ar
    30    18    19   ar
    31    19    22    1
    32    22    23    1
    33    19    20   ar
    34    20    21    1
    35    29    30   ar
    36    30    31   ar
    37    31    35    1
    38    35    36    1
    39    36    37    1
    40    36    38    1
    41    31    32   ar
    42    32    27   ar
    43    12     2   ar
    44    20    15   ar
    45    10     4   ar
    46    25    26    1
@<TRIPOS>MOLECULE
*****
 43 46 0 0 0
SMALL
GASTEIGER

@<TRIPOS>ATOM
      1 C         142.2263  141.4692  163.3549 C.3     1  UNL1        0.0799
      2 C         142.4801  141.7101  164.8136 C.ar    1  UNL1        0.0374
      3 C         141.6430  141.0140  165.8454 C.ar    1  UNL1        0.0023
      4 C         141.8967  141.2549  167.3040 C.ar    1  UNL1        0.0181
      5 C         141.0596  140.5588  168.3359 C.ar    1  UNL1        0.0082
      6 C         141.3134  140.7996  169.7946 C.ar    1  UNL1        0.0347
      7 BR        140.4763  140.1036  170.8264 Br      1  UNL1       -0.0490
      8 C         142.4043  141.7366  170.2213 C.ar    1  UNL1        0.0082
      9 C         143.2414  142.4326  169.1895 C.ar    1  UNL1        0.0197
     10 C         142.9876  142.1918  167.7309 C.ar    1  UNL1        0.0844
     11 N         143.8248  142.8879  166.6990 N.ar    1  UNL1       -0.2119
     12 C         143.5710  142.6470  165.2403 C.ar    1  UNL1        0.2211
     13 O         144.4081  143.3431  164.2085 O.3     1  UNL1       -0.4563
     14 C         143.9223  144.7617  164.1704 C.3     1  UNL1        0.2542
     15 C         141.4999  142.4980  162.5401 C.ar    1  UNL1        0.0148
     16 C         140.0849  142.8616  162.8801 C.ar    1  UNL1       -0.0014
     17 C         139.3585  143.8904  162.0653 C.ar    1  UNL1        0.0029
     18 C         140.0471  144.5556  160.9105 C.ar    1  UNL1        0.0392
     19 C         141.4621  144.1920  160.5706 C.ar    1  UNL1        0.1657
     20 C         142.1885  143.1632  161.3855 C.ar    1  UNL1        0.1702
     21 F         143.6035  142.7995  161.0455 F       1  UNL1       -0.2013
     22 O         142.1507  144.8572  159.4159 O.3     1  UNL1       -0.4692
     23 C         141.3409  145.4933  158.3252 C.3     1  UNL1        0.2526
     24 C         142.6989  140.1995  162.7111 C.3     1  UNL1        0.1162
     25 O         144.1180  140.6738  162.8176 O.3     1  UNL1       -0.3820
     26 H         144.7121  140.0019  162.4481 H       1  UNL1        0.2107
     27 C         139.1417  139.3259  161.1838 C.ar    1  UNL1        0.2272
     28 C         140.5608  139.8001  161.2903 C.ar    1  UNL1        0.0559
     29 C         141.2799  139.7253  162.6045 C.ar    1  UNL1        0.0117
     30 C         140.5799  139.1763  163.8122 C.ar    1  UNL1        0.0560
     31 C         139.1608  138.7021  163.7057 C.ar    1  UNL1        0.2319
     32 N         138.4417  138.7769  162.3914 N.ar    1  UNL1       -0.1766
     33 C         138.4257  140.6790  159.0846 C.3     1  UNL1        0.2542
     34 O         138.4226  139.4007  159.8694 O.3     1  UNL1       -0.4561
     35 O         138.4608  138.1531  164.9135 O.3     1  UNL1       -0.4067
     36 C         138.0821  139.0671  166.0409 C.3     1  UNL1        0.5097
     37 F         137.3497  138.5248  167.2323 F       1  UNL1       -0.1549
     38 F         138.4357  140.5234  165.9769 F       1  UNL1       -0.1549
     39 C         143.1716  138.9299  162.0673 C.3     1  UNL1        0.0491
     40 C         144.1269  138.9852  160.9121 C.3     1  UNL1        0.0750
     41 N         143.6041  139.1126  159.5120 N.3     1  UNL1       -0.2702
     42 C         142.7951  138.0024  158.9096 C.3     1  UNL1        0.0897
     43 C         143.8904  140.3502  158.7142 C.3     1  UNL1        0.0897
@<TRIPOS>BOND
     1    33    34    1
     2    34    27    1
     3    27    28   ar
     4    28    29   ar
     5    29    24    1
     6    24    25    1
     7    24    39    1
     8    39    40    1
     9    40    41    1
    10    41    42    1
    11    41    43    1
    12    24     1    1
    13     1     2    1
    14     2     3   ar
    15     3     4   ar
    16     4     5   ar
    17     5     6   ar
    18     6     7    1
    19     6     8   ar
    20     8     9   ar
    21     9    10   ar
    22    10    11   ar
    23    11    12   ar
    24    12    13    1
    25    13    14    1
    26     1    15    1
    27    15    16   ar
    28    16    17   ar
    29    17    18   ar
    30    18    19   ar
    31    19    22    1
    32    22    23    1
    33    19    20   ar
    34    20    21    1
    35    29    30   ar
    36    30    31   ar
    37    31    35    1
    38    35    36    1
    39    36    37    1
    40    36    38    1
    41    31    32   ar
    42    32    27   ar
    43    12     2   ar
    44    20    15   ar
    45    10     4   ar
    46    25    26    1
@<TRIPOS>MOLECULE
*****
 43 46 0 0 0
SMALL
GASTEIGER

@<TRIPOS>ATOM
      1 C         140.7350  140.5818  163.1563 C.3     1  UNL1        0.0799
      2 C         140.4063  140.5014  164.6177 C.ar    1  UNL1        0.0374
      3 C         140.6526  141.6833  165.5079 C.ar    1  UNL1        0.0023
      4 C         140.3239  141.6029  166.9692 C.ar    1  UNL1        0.0181
      5 C         140.5703  142.7848  167.8595 C.ar    1  UNL1        0.0082
      6 C         140.2416  142.7044  169.3209 C.ar    1  UNL1        0.0347
      7 BR        140.4879  143.8862  170.2111 Br      1  UNL1       -0.0490
      8 C         139.6665  141.4422  169.8919 C.ar    1  UNL1        0.0082
      9 C         139.4202  140.2603  169.0017 C.ar    1  UNL1        0.0197
     10 C         139.7489  140.3407  167.5404 C.ar    1  UNL1        0.0844
     11 N         139.5025  139.1588  166.6501 N.ar    1  UNL1       -0.2119
     12 C         139.8312  139.2392  165.1887 C.ar    1  UNL1        0.2211
     13 O         139.5849  138.0574  164.2985 O.3     1  UNL1       -0.4563
     14 C         140.7002  137.0928  164.5738 C.3     1  UNL1        0.2542
     15 C         141.8694  139.7752  162.5973 C.ar    1  UNL1        0.0148
     16 C         143.2157  139.8164  163.2574 C.ar    1  UNL1       -0.0014
     17 C         144.3501  139.0098  162.6983 C.ar    1  UNL1        0.0029
     18 C         144.1381  138.1620  161.4791 C.ar    1  UNL1        0.0392
     19 C         142.7918  138.1208  160.8190 C.ar    1  UNL1        0.1657
     20 C         141.6574  138.9275  161.3781 C.ar    1  UNL1        0.1702
     21 F         140.3111  138.8863  160.7180 F       1  UNL1       -0.2013
     22 O         142.5799  137.2730  159.5999 O.3     1  UNL1       -0.4692
     23 C         142.6195  137.8970  158.2364 C.3     1  UNL1        0.2526
     24 C         139.9293  141.4688  162.2540 C.3     1  UNL1        0.1162
     25 O         138.7068  140.6475  162.5383 O.3     1  UNL1       -0.3820
     26 H         137.9520  141.0113  162.0495 H       1  UNL1        0.2107
     27 C         143.0099  143.9146  162.7813 C.ar    1  UNL1        0.2272
     28 C         141.7873  143.0933  163.0656 C.ar    1  UNL1        0.0559
     29 C         141.1519  142.2901  161.9697 C.ar    1  UNL1        0.0117
     30 C         141.7390  142.3082  160.5896 C.ar    1  UNL1        0.0560
     31 C         142.9616  143.1295  160.3053 C.ar    1  UNL1        0.2319
     32 N         143.5970  143.9327  161.4012 N.ar    1  UNL1       -0.1766
     33 C         144.3064  144.0224  165.0303 C.3     1  UNL1        0.2542
     34 O         143.6454  144.7179  163.8773 O.3     1  UNL1       -0.4561
     35 O         143.5487  143.1475  158.9250 O.3     1  UNL1       -0.4067
     36 C         144.3177  141.9621  158.4216 C.3     1  UNL1        0.5097
     37 F         145.1128  142.0672  157.1541 F       1  UNL1       -0.1549
     38 F         144.2915  140.6715  159.1857 F       1  UNL1       -0.1549
     39 C         139.1236  142.3558  161.3518 C.3     1  UNL1        0.0491
     40 C         138.0299  143.2100  161.9213 C.3     1  UNL1        0.0750
     41 N         138.3543  144.2653  162.9367 N.3     1  UNL1       -0.2702
     42 C         139.1003  145.4993  162.5239 C.3     1  UNL1        0.0897
     43 C         137.9325  144.0866  164.3651 C.3     1  UNL1        0.0897
@<TRIPOS>BOND
     1    33    34    1
     2    34    27    1
     3    27    28   ar
     4    28    29   ar
     5    29    24    1
     6    24    25    1
     7    24    39    1
     8    39    40    1
     9    40    41    1
    10    41    42    1
    11    41    43    1
    12    24     1    1
    13     1     2    1
    14     2     3   ar
    15     3     4   ar
    16     4     5   ar
    17     5     6   ar
    18     6     7    1
    19     6     8   ar
    20     8     9   ar
    21     9    10   ar
    22    10    11   ar
    23    11    12   ar
    24    12    13    1
    25    13    14    1
    26     1    15    1
    27    15    16   ar
    28    16    17   ar
    29    17    18   ar
    30    18    19   ar
    31    19    22    1
    32    22    23    1
    33    19    20   ar
    34    20    21    1
    35    29    30   ar
    36    30    31   ar
    37    31    35    1
    38    35    36    1
    39    36    37    1
    40    36    38    1
    41    31    32   ar
    42    32    27   ar
    43    12     2   ar
    44    20    15   ar
    45    10     4   ar
    46    25    26    1
@<TRIPOS>MOLECULE
*****
 43 46 0 0 0
SMALL
GASTEIGER

@<TRIPOS>ATOM
      1 C         141.4501  142.4540  162.4856 C.3     1  UNL1        0.0799
      2 C         141.8731  142.3499  163.9210 C.ar    1  UNL1        0.0374
      3 C         140.8946  141.8876  164.9596 C.ar    1  UNL1        0.0023
      4 C         141.3176  141.7835  166.3950 C.ar    1  UNL1        0.0181
      5 C         140.3390  141.3212  167.4336 C.ar    1  UNL1        0.0082
      6 C         140.7620  141.2171  168.8690 C.ar    1  UNL1        0.0347
      7 BR        139.7835  140.7548  169.9076 Br      1  UNL1       -0.0490
      8 C         142.1635  141.5753  169.2657 C.ar    1  UNL1        0.0082
      9 C         143.1421  142.0377  168.2271 C.ar    1  UNL1        0.0197
     10 C         142.7191  142.1417  166.7917 C.ar    1  UNL1        0.0844
     11 N         143.6977  142.6040  165.7531 N.ar    1  UNL1       -0.2119
     12 C         143.2746  142.7081  164.3177 C.ar    1  UNL1        0.2211
     13 O         144.2532  143.1704  163.2791 O.3     1  UNL1       -0.4563
     14 C         145.4027  142.2086  163.3370 C.3     1  UNL1        0.2542
     15 C         142.3238  141.8920  161.4036 C.ar    1  UNL1        0.0148
     16 C         142.7627  142.7646  160.2651 C.ar    1  UNL1       -0.0014
     17 C         143.6364  142.2026  159.1831 C.ar    1  UNL1        0.0029
     18 C         144.0713  140.7681  159.2395 C.ar    1  UNL1        0.0392
     19 C         143.6324  139.8956  160.3780 C.ar    1  UNL1        0.1657
     20 C         142.7587  140.4576  161.4600 C.ar    1  UNL1        0.1702
     21 F         142.3198  139.5851  162.5985 F       1  UNL1       -0.2013
     22 O         144.0673  138.4611  160.4344 O.3     1  UNL1       -0.4692
     23 C         143.0649  137.3649  160.2259 C.3     1  UNL1        0.2526
     24 C         140.1533  143.1200  162.1323 C.3     1  UNL1        0.1162
     25 O         140.7273  144.4479  162.5288 O.3     1  UNL1       -0.3820
     26 H         140.0605  145.1402  162.3988 H       1  UNL1        0.2107
     27 C         138.7030  140.1779  159.8984 C.ar    1  UNL1        0.2272
     28 C         139.2770  141.5058  160.2948 C.ar    1  UNL1        0.0559
     29 C         139.5793  141.7921  161.7359 C.ar    1  UNL1        0.0117
     30 C         139.3076  140.7505  162.7804 C.ar    1  UNL1        0.0560
     31 C         138.7336  139.4226  162.3840 C.ar    1  UNL1        0.2319
     32 N         138.4313  139.1363  160.9429 N.ar    1  UNL1       -0.1766
     33 C         137.6732  140.9075  157.6274 C.3     1  UNL1        0.2542
     34 O         138.4007  139.8916  158.4572 O.3     1  UNL1       -0.4561
     35 O         138.4619  138.3809  163.4286 O.3     1  UNL1       -0.4067
     36 C         138.7991  138.6531  164.8646 C.3     1  UNL1        0.5097
     37 F         137.8171  139.3705  165.7427 F       1  UNL1       -0.1549
     38 F         140.1185  138.2079  165.4226 F       1  UNL1       -0.1549
     39 C         138.8566  143.7860  161.7790 C.3     1  UNL1        0.0491
     40 C         138.1142  144.5787  162.8138 C.3     1  UNL1        0.0750
     41 N         138.0709  144.1017  164.2353 N.3     1  UNL1       -0.2702
     42 C         138.6973  144.9244  165.3219 C.3     1  UNL1        0.0897
     43 C         137.4012  142.8019  164.5702 C.3     1  UNL1        0.0897
@<TRIPOS>BOND
     1    33    34    1
     2    34    27    1
     3    27    28   ar
     4    28    29   ar
     5    29    24    1
     6    24    25    1
     7    24    39    1
     8    39    40    1
     9    40    41    1
    10    41    42    1
    11    41    43    1
    12    24     1    1
    13     1     2    1
    14     2     3   ar
    15     3     4   ar
    16     4     5   ar
    17     5     6   ar
    18     6     7    1
    19     6     8   ar
    20     8     9   ar
    21     9    10   ar
    22    10    11   ar
    23    11    12   ar
    24    12    13    1
    25    13    14    1
    26     1    15    1
    27    15    16   ar
    28    16    17   ar
    29    17    18   ar
    30    18    19   ar
    31    19    22    1
    32    22    23    1
    33    19    20   ar
    34    20    21    1
    35    29    30   ar
    36    30    31   ar
    37    31    35    1
    38    35    36    1
    39    36    37    1
    40    36    38    1
    41    31    32   ar
    42    32    27   ar
    43    12     2   ar
    44    20    15   ar
    45    10     4   ar
    46    25    26    1
@<TRIPOS>MOLECULE
*****
 43 46 0 0 0
SMALL
GASTEIGER

@<TRIPOS>ATOM
      1 C         141.4210  141.5132  164.0957 C.3     1  UNL1        0.0799
      2 C         142.3170  141.8769  162.9490 C.ar    1  UNL1        0.0374
      3 C         142.2620  141.0878  161.6745 C.ar    1  UNL1        0.0023
      4 C         143.1580  141.4514  160.5279 C.ar    1  UNL1        0.0181
      5 C         143.1029  140.6622  159.2534 C.ar    1  UNL1        0.0082
      6 C         143.9990  141.0260  158.1067 C.ar    1  UNL1        0.0347
      7 BR        143.9439  140.2368  156.8323 Br      1  UNL1       -0.0490
      8 C         144.9500  142.1788  158.2345 C.ar    1  UNL1        0.0082
      9 C         145.0051  142.9680  159.5089 C.ar    1  UNL1        0.0197
     10 C         144.1091  142.6043  160.6556 C.ar    1  UNL1        0.0844
     11 N         144.1642  143.3935  161.9300 N.ar    1  UNL1       -0.2119
     12 C         143.2681  143.0298  163.0767 C.ar    1  UNL1        0.2211
     13 O         143.3232  143.8190  164.3511 O.3     1  UNL1       -0.4563
     14 C         144.5585  143.3608  165.0681 C.3     1  UNL1        0.2542
     15 C         141.9560  140.7004  165.2371 C.ar    1  UNL1        0.0148
     16 C         142.4917  139.3213  164.9895 C.ar    1  UNL1       -0.0014
     17 C         143.0268  138.5085  166.1309 C.ar    1  UNL1        0.0029
     18 C         143.0263  139.0746  167.5200 C.ar    1  UNL1        0.0392
     19 C         142.4906  140.4537  167.7676 C.ar    1  UNL1        0.1657
     20 C         141.9555  141.2666  166.6261 C.ar    1  UNL1        0.1702
     21 F         141.4198  142.6456  166.8737 F       1  UNL1       -0.2013
     22 O         142.4900  141.0199  169.1566 O.3     1  UNL1       -0.4692
     23 C         143.4831  142.0783  169.5354 C.3     1  UNL1        0.2526
     24 C         139.9898  141.9624  164.1009 C.3     1  UNL1        0.1162
     25 O         140.4354  143.3797  164.3076 O.3     1  UNL1       -0.3820
     26 H         139.6589  143.9591  164.3553 H       1  UNL1        0.2107
     27 C         139.1112  138.5308  162.3114 C.ar    1  UNL1        0.2272
     28 C         139.5568  139.9481  162.5181 C.ar    1  UNL1        0.0559
     29 C         139.5442  140.5451  163.8941 C.ar    1  UNL1        0.0117
     30 C         139.0860  139.7249  165.0634 C.ar    1  UNL1        0.0560
     31 C         138.6404  138.3076  164.8566 C.ar    1  UNL1        0.2319
     32 N         138.6530  137.7105  163.4806 N.ar    1  UNL1       -0.1766
     33 C         140.1047  138.4266  159.9130 C.3     1  UNL1        0.2542
     34 O         139.1239  137.9338  160.9353 O.3     1  UNL1       -0.4561
     35 O         138.1822  137.4873  166.0259 O.3     1  UNL1       -0.4067
     36 C         137.5918  138.1608  167.2292 C.3     1  UNL1        0.5097
     37 F         136.2467  137.7380  167.7408 F       1  UNL1       -0.1549
     38 F         138.3465  139.2573  167.9207 F       1  UNL1       -0.1549
     39 C         138.5586  142.4116  164.1060 C.3     1  UNL1        0.0491
     40 C         138.1374  143.5835  163.2698 C.3     1  UNL1        0.0750
     41 N         138.6806  143.7480  161.8813 N.3     1  UNL1       -0.2702
     42 C         139.5674  144.9132  161.5561 C.3     1  UNL1        0.0897
     43 C         138.3369  142.7472  160.8181 C.3     1  UNL1        0.0897
@<TRIPOS>BOND
     1    33    34    1
     2    34    27    1
     3    27    28   ar
     4    28    29   ar
     5    29    24    1
     6    24    25    1
     7    24    39    1
     8    39    40    1
     9    40    41    1
    10    41    42    1
    11    41    43    1
    12    24     1    1
    13     1     2    1
    14     2     3   ar
    15     3     4   ar
    16     4     5   ar
    17     5     6   ar
    18     6     7    1
    19     6     8   ar
    20     8     9   ar
    21     9    10   ar
    22    10    11   ar
    23    11    12   ar
    24    12    13    1
    25    13    14    1
    26     1    15    1
    27    15    16   ar
    28    16    17   ar
    29    17    18   ar
    30    18    19   ar
    31    19    22    1
    32    22    23    1
    33    19    20   ar
    34    20    21    1
    35    29    30   ar
    36    30    31   ar
    37    31    35    1
    38    35    36    1
    39    36    37    1
    40    36    38    1
    41    31    32   ar
    42    32    27   ar
    43    12     2   ar
    44    20    15   ar
    45    10     4   ar
    46    25    26    1
@<TRIPOS>MOLECULE
*****
 43 46 0 0 0
SMALL
GASTEIGER

@<TRIPOS>ATOM
      1 C         140.4577  141.4188  161.5766 C.3     1  UNL1        0.0799
      2 C         140.1760  141.0094  162.9919 C.ar    1  UNL1        0.0374
      3 C         141.2109  141.2268  164.0557 C.ar    1  UNL1        0.0023
      4 C         140.9292  140.8173  165.4710 C.ar    1  UNL1        0.0181
      5 C         141.9641  141.0348  166.5348 C.ar    1  UNL1        0.0082
      6 C         141.6824  140.6253  167.9501 C.ar    1  UNL1        0.0347
      7 BR        142.7173  140.8427  169.0139 Br      1  UNL1       -0.0490
      8 C         140.3658  139.9984  168.3015 C.ar    1  UNL1        0.0082
      9 C         139.3309  139.7810  167.2377 C.ar    1  UNL1        0.0197
     10 C         139.6126  140.1904  165.8225 C.ar    1  UNL1        0.0844
     11 N         138.5777  139.9730  164.7587 N.ar    1  UNL1       -0.2119
     12 C         138.8594  140.3825  163.3434 C.ar    1  UNL1        0.2211
     13 O         137.8245  140.1650  162.2796 O.3     1  UNL1       -0.4563
     14 C         137.8307  138.6930  161.9915 C.3     1  UNL1        0.2542
     15 C         140.7160  140.3748  160.5311 C.ar    1  UNL1        0.0148
     16 C         141.8963  139.4584  160.6618 C.ar    1  UNL1       -0.0014
     17 C         142.1546  138.4143  159.6162 C.ar    1  UNL1        0.0029
     18 C         141.2326  138.2867  158.4399 C.ar    1  UNL1        0.0392
     19 C         140.0523  139.2031  158.3092 C.ar    1  UNL1        0.1657
     20 C         139.7940  140.2472  159.3548 C.ar    1  UNL1        0.1702
     21 F         138.6138  141.1637  159.2241 F       1  UNL1       -0.2013
     22 O         139.1303  139.0755  157.1329 O.3     1  UNL1       -0.4692
     23 C         139.4250  138.0760  156.0541 C.3     1  UNL1        0.2526
     24 C         140.4812  142.8724  161.2070 C.3     1  UNL1        0.1162
     25 O         139.0236  142.9816  161.5440 O.3     1  UNL1       -0.3820
     26 H         138.7237  143.8913  161.3912 H       1  UNL1        0.2107
     27 C         143.8447  142.7451  159.1045 C.ar    1  UNL1        0.2272
     28 C         142.3871  142.8543  159.4415 C.ar    1  UNL1        0.0559
     29 C         141.9387  142.7632  160.8700 C.ar    1  UNL1        0.0117
     30 C         142.9479  142.5629  161.9615 C.ar    1  UNL1        0.0560
     31 C         144.4055  142.4537  161.6245 C.ar    1  UNL1        0.2319
     32 N         144.8539  142.5448  160.1960 N.ar    1  UNL1       -0.1766
     33 C         145.3269  141.8839  157.1522 C.3     1  UNL1        0.2542
     34 O         144.2930  142.8361  157.6759 O.3     1  UNL1       -0.4561
     35 O         145.4147  142.2534  162.7160 O.3     1  UNL1       -0.4067
     36 C         144.9588  141.9511  164.1127 C.3     1  UNL1        0.5097
     37 F         144.4865  143.0610  165.0043 F       1  UNL1       -0.1549
     38 F         144.9751  140.5387  164.6178 F       1  UNL1       -0.1549
     39 C         140.5046  144.3259  160.8373 C.3     1  UNL1        0.0491
     40 C         140.1372  145.3647  161.8552 C.3     1  UNL1        0.0750
     41 N         140.5248  145.1768  163.2920 N.3     1  UNL1       -0.2702
     42 C         139.4940  144.7592  164.2985 C.3     1  UNL1        0.0897
     43 C         141.9433  145.4066  163.7224 C.3     1  UNL1        0.0897
@<TRIPOS>BOND
     1    33    34    1
     2    34    27    1
     3    27    28   ar
     4    28    29   ar
     5    29    24    1
     6    24    25    1
     7    24    39    1
     8    39    40    1
     9    40    41    1
    10    41    42    1
    11    41    43    1
    12    24     1    1
    13     1     2    1
    14     2     3   ar
    15     3     4   ar
    16     4     5   ar
    17     5     6   ar
    18     6     7    1
    19     6     8   ar
    20     8     9   ar
    21     9    10   ar
    22    10    11   ar
    23    11    12   ar
    24    12    13    1
    25    13    14    1
    26     1    15    1
    27    15    16   ar
    28    16    17   ar
    29    17    18   ar
    30    18    19   ar
    31    19    22    1
    32    22    23    1
    33    19    20   ar
    34    20    21    1
    35    29    30   ar
    36    30    31   ar
    37    31    35    1
    38    35    36    1
    39    36    37    1
    40    36    38    1
    41    31    32   ar
    42    32    27   ar
    43    12     2   ar
    44    20    15   ar
    45    10     4   ar
    46    25    26    1
