@<TRIPOS>MOLECULE
*****
 35 38 0 0 0
SMALL
GASTEIGER

@<TRIPOS>ATOM
      1 C         142.5444  138.4188  158.5401 C.ar    1  UNL1        0.1535
      2 C         141.2332  138.2160  159.2398 C.ar    1  UNL1        0.0377
      3 C         141.1379  138.4075  160.7244 C.ar    1  UNL1        0.0239
      4 C         142.3537  138.8019  161.5093 C.ar    1  UNL1        0.1059
      5 N         143.6649  139.0048  160.8097 N.ar    1  UNL1       -0.1467
      6 N         143.7602  138.8132  159.3250 N.ar    1  UNL1       -0.1329
      7 C         142.2583  138.9935  162.9940 C.ar    1  UNL1        0.0532
      8 C         140.9143  139.0841  163.6538 C.ar    1  UNL1        0.0061
      9 C         140.8189  139.2757  165.1385 C.ar    1  UNL1        0.0194
     10 C         142.0676  139.3766  165.9634 C.ar    1  UNL1        0.0859
     11 C         143.4117  139.2860  165.3036 C.ar    1  UNL1        0.0558
     12 C         143.5071  139.0944  163.8190 C.ar    1  UNL1        0.1366
     13 O         144.8512  139.0038  163.1592 O.3     1  UNL1       -0.5054
     14 H         145.6312  139.0668  163.6745 H       1  UNL1        0.2922
     15 N         141.9723  139.5682  167.4480 N.ar    1  UNL1       -0.2269
     16 C         140.7694  140.0580  168.1984 C.ar    1  UNL1        0.1033
     17 C         141.1167  140.0962  169.6571 C.ar    1  UNL1        0.0563
     18 C         142.5344  139.6298  169.8082 C.ar    1  UNL1        0.1471
     19 N         143.2906  139.5107  171.0982 N.pl3   1  UNL1       -0.3412
     20 N         143.0632  139.3036  168.4430 N.ar    1  UNL1       -0.1504
     21 H         142.8550  139.7501  171.9481 H       1  UNL1        0.1438
     22 H         144.2225  139.1932  171.0950 H       1  UNL1        0.1438
     23 C         142.8959  139.4047  156.1622 C.3     1  UNL1        0.1135
     24 N         142.6398  138.2272  157.0554 N.pl3   1  UNL1       -0.2916
     25 C         142.4789  136.8581  156.4640 C.3     1  UNL1        0.0768
     26 C         141.7573  136.6842  155.1606 C.3     1  UNL1        0.0342
     27 C         141.5965  135.3151  154.5692 C.3     1  UNL1        0.0435
     28 C         141.1921  134.2303  153.6155 C.3     1  UNL1        0.0158
     29 C         140.8952  136.1336  153.5259 C.3     1  UNL1        0.0158
     30 N         142.1573  134.1200  155.2812 N.3     1  UNL1       -0.3015
     31 C         142.8790  134.2938  156.5847 C.3     1  UNL1        0.0435
     32 C         143.6361  133.9509  157.8333 C.3     1  UNL1        0.0158
     33 C         142.9811  132.8057  156.4269 C.3     1  UNL1        0.0158
     34 C         143.0398  135.6629  157.1761 C.3     1  UNL1        0.0342
     35 H         142.8129  133.6753  154.6387 H       1  UNL1        0.1231
@<TRIPOS>BOND
     1    23    24    1
     2    24     1    1
     3     1     2   ar
     4     2     3   ar
     5     3     4   ar
     6     4     7    1
     7     7     8   ar
     8     8     9   ar
     9     9    10   ar
    10    10    15    1
    11    15    16   ar
    12    16    17   ar
    13    17    18   ar
    14    18    19    1
    15    18    20   ar
    16    10    11   ar
    17    11    12   ar
    18    12    13    1
    19     4     5   ar
    20     5     6   ar
    21    24    25    1
    22    25    26    1
    23    26    27    1
    24    27    28    1
    25    27    29    1
    26    27    30    1
    27    30    31    1
    28    31    32    1
    29    31    33    1
    30    31    34    1
    31     6     1   ar
    32    34    25    1
    33    12     7   ar
    34    20    15   ar
    35    19    21    1
    36    19    22    1
    37    13    14    1
    38    30    35    1
@<TRIPOS>MOLECULE
*****
 35 38 0 0 0
SMALL
GASTEIGER

@<TRIPOS>ATOM
      1 C         142.5147  138.4510  158.5455 C.ar    1  UNL1        0.1535
      2 C         141.1891  138.3193  159.2350 C.ar    1  UNL1        0.0377
      3 C         141.0946  138.5063  160.7203 C.ar    1  UNL1        0.0239
      4 C         142.3256  138.8248  161.5160 C.ar    1  UNL1        0.1059
      5 N         143.6512  138.9565  160.8264 N.ar    1  UNL1       -0.1467
      6 N         143.7457  138.7696  159.3411 N.ar    1  UNL1       -0.1329
      7 C         142.2311  139.0117  163.0014 C.ar    1  UNL1        0.0532
      8 C         140.8875  139.0771  163.6650 C.ar    1  UNL1        0.0061
      9 C         140.7929  139.2640  165.1504 C.ar    1  UNL1        0.0194
     10 C         142.0420  139.3855  165.9720 C.ar    1  UNL1        0.0859
     11 C         143.3856  139.3201  165.3083 C.ar    1  UNL1        0.0558
     12 C         143.4801  139.1332  163.8230 C.ar    1  UNL1        0.1366
     13 O         144.8238  139.0678  163.1592 O.3     1  UNL1       -0.5054
     14 H         145.6040  139.1438  163.6725 H       1  UNL1        0.2922
     15 N         141.9475  139.5724  167.4573 N.ar    1  UNL1       -0.2269
     16 C         140.7214  139.9821  168.2181 C.ar    1  UNL1        0.1033
     17 C         141.0786  140.0454  169.6736 C.ar    1  UNL1        0.0563
     18 C         142.5255  139.6747  169.8122 C.ar    1  UNL1        0.1471
     19 N         143.2995  139.6081  171.0954 N.pl3   1  UNL1       -0.3412
     20 N         143.0625  139.3825  168.4425 N.ar    1  UNL1       -0.1504
     21 H         142.8566  139.8191  171.9490 H       1  UNL1        0.1438
     22 H         144.2504  139.3534  171.0840 H       1  UNL1        0.1438
     23 C         142.8685  139.4438  156.1707 C.3     1  UNL1        0.1135
     24 N         142.6092  138.2641  157.0601 N.pl3   1  UNL1       -0.2916
     25 C         142.4445  136.8974  156.4642 C.3     1  UNL1        0.0768
     26 C         142.9996  135.6980  157.1736 C.3     1  UNL1        0.0342
     27 C         142.8349  134.3314  156.5777 C.3     1  UNL1        0.0435
     28 C         142.9318  132.8434  156.4155 C.3     1  UNL1        0.0158
     29 C         143.5884  133.9819  157.8267 C.3     1  UNL1        0.0158
     30 N         142.1151  134.1641  155.2724 N.3     1  UNL1       -0.3015
     31 C         141.5599  135.3635  154.5629 C.3     1  UNL1        0.0435
     32 C         140.8637  136.1877  153.5209 C.3     1  UNL1        0.0158
     33 C         141.1534  134.2831  153.6051 C.3     1  UNL1        0.0158
     34 C         141.7247  136.7302  155.1588 C.3     1  UNL1        0.0342
     35 H         141.3305  133.5361  155.4471 H       1  UNL1        0.1231
@<TRIPOS>BOND
     1    23    24    1
     2    24     1    1
     3     1     2   ar
     4     2     3   ar
     5     3     4   ar
     6     4     7    1
     7     7     8   ar
     8     8     9   ar
     9     9    10   ar
    10    10    15    1
    11    15    16   ar
    12    16    17   ar
    13    17    18   ar
    14    18    19    1
    15    18    20   ar
    16    10    11   ar
    17    11    12   ar
    18    12    13    1
    19     4     5   ar
    20     5     6   ar
    21    24    25    1
    22    25    26    1
    23    26    27    1
    24    27    28    1
    25    27    29    1
    26    27    30    1
    27    30    31    1
    28    31    32    1
    29    31    33    1
    30    31    34    1
    31     6     1   ar
    32    34    25    1
    33    12     7   ar
    34    20    15   ar
    35    19    21    1
    36    19    22    1
    37    13    14    1
    38    30    35    1
@<TRIPOS>MOLECULE
*****
 35 38 0 0 0
SMALL
GASTEIGER

@<TRIPOS>ATOM
      1 C         140.6314  145.1203  157.2043 C.ar    1  UNL1        0.1535
      2 C         139.6961  144.1131  157.8051 C.ar    1  UNL1        0.0377
      3 C         139.8252  143.7393  159.2520 C.ar    1  UNL1        0.0239
      4 C         140.8896  144.3727  160.0981 C.ar    1  UNL1        0.1059
      5 N         141.8248  145.3799  159.4974 N.ar    1  UNL1       -0.1467
      6 N         141.6957  145.7537  158.0505 N.ar    1  UNL1       -0.1329
      7 C         141.0186  143.9989  161.5451 C.ar    1  UNL1        0.0532
      8 C         141.3237  142.5814  161.9292 C.ar    1  UNL1        0.0061
      9 C         141.4527  142.2075  163.3762 C.ar    1  UNL1        0.0194
     10 C         141.2767  143.2513  164.4390 C.ar    1  UNL1        0.0859
     11 C         140.9717  144.6689  164.0549 C.ar    1  UNL1        0.0558
     12 C         140.8426  145.0426  162.6080 C.ar    1  UNL1        0.1366
     13 O         140.5376  146.4602  162.2238 O.3     1  UNL1       -0.5054
     14 H         140.4276  147.1122  162.8877 H       1  UNL1        0.2922
     15 N         141.4058  142.8775  165.8859 N.ar    1  UNL1       -0.2269
     16 C         142.6219  142.2919  166.5402 C.ar    1  UNL1        0.1033
     17 C         142.3092  142.0762  167.9913 C.ar    1  UNL1        0.0563
     18 C         140.8996  142.5285  168.2338 C.ar    1  UNL1        0.1471
     19 N         140.1756  142.4920  169.5470 N.pl3   1  UNL1       -0.3412
     20 N         140.3414  143.0238  166.9326 N.ar    1  UNL1       -0.1504
     21 H         140.6292  142.1471  170.3498 H       1  UNL1        0.1438
     22 H         139.2467  142.8129  169.6060 H       1  UNL1        0.1438
     23 C         140.8063  144.4833  154.6916 C.3     1  UNL1        0.1135
     24 N         140.5023  145.4941  155.7574 N.pl3   1  UNL1       -0.2916
     25 C         140.0692  146.8787  155.3762 C.3     1  UNL1        0.0768
     26 C         140.4035  147.4221  154.0187 C.3     1  UNL1        0.0342
     27 C         139.9704  148.8067  153.6376 C.3     1  UNL1        0.0435
     28 C         139.7810  150.0490  152.8186 C.3     1  UNL1        0.0158
     29 C         140.6721  148.3970  152.3768 C.3     1  UNL1        0.0158
     30 N         139.2030  149.6479  154.6140 N.3     1  UNL1       -0.3015
     31 C         138.8686  149.1045  155.9716 C.3     1  UNL1        0.0435
     32 C         138.3173  149.0334  157.3648 C.3     1  UNL1        0.0158
     33 C         138.2440  150.4644  156.0743 C.3     1  UNL1        0.0158
     34 C         139.3017  147.7199  156.3527 C.3     1  UNL1        0.0342
     35 H         138.3181  149.8858  154.1659 H       1  UNL1        0.1231
@<TRIPOS>BOND
     1    23    24    1
     2    24     1    1
     3     1     2   ar
     4     2     3   ar
     5     3     4   ar
     6     4     7    1
     7     7     8   ar
     8     8     9   ar
     9     9    10   ar
    10    10    15    1
    11    15    16   ar
    12    16    17   ar
    13    17    18   ar
    14    18    19    1
    15    18    20   ar
    16    10    11   ar
    17    11    12   ar
    18    12    13    1
    19     4     5   ar
    20     5     6   ar
    21    24    25    1
    22    25    26    1
    23    26    27    1
    24    27    28    1
    25    27    29    1
    26    27    30    1
    27    30    31    1
    28    31    32    1
    29    31    33    1
    30    31    34    1
    31     6     1   ar
    32    34    25    1
    33    12     7   ar
    34    20    15   ar
    35    19    21    1
    36    19    22    1
    37    13    14    1
    38    30    35    1
@<TRIPOS>MOLECULE
*****
 35 38 0 0 0
SMALL
GASTEIGER

@<TRIPOS>ATOM
      1 C         142.1595  140.7727  164.6213 C.ar    1  UNL1        0.1535
      2 C         141.9259  140.0452  163.3305 C.ar    1  UNL1        0.0377
      3 C         141.5322  140.8079  162.1004 C.ar    1  UNL1        0.0239
      4 C         141.3720  142.2981  162.1611 C.ar    1  UNL1        0.1059
      5 N         141.6055  143.0256  163.4519 N.ar    1  UNL1       -0.1467
      6 N         141.9993  142.2629  164.6820 N.ar    1  UNL1       -0.1329
      7 C         140.9782  143.0608  160.9309 C.ar    1  UNL1        0.0532
      8 C         139.9638  142.4881  159.9860 C.ar    1  UNL1        0.0061
      9 C         139.5700  143.2508  158.7558 C.ar    1  UNL1        0.0194
     10 C         140.1907  144.5862  158.4706 C.ar    1  UNL1        0.0859
     11 C         141.2052  145.1589  159.4156 C.ar    1  UNL1        0.0558
     12 C         141.5989  144.3962  160.6457 C.ar    1  UNL1        0.1366
     13 O         142.6134  144.9690  161.5907 O.3     1  UNL1       -0.5054
     14 H         143.0011  145.8032  161.4125 H       1  UNL1        0.2922
     15 N         139.7970  145.3489  157.2405 N.ar    1  UNL1       -0.2269
     16 C         139.1323  144.7769  156.0235 C.ar    1  UNL1        0.1033
     17 C         138.9233  145.8920  155.0422 C.ar    1  UNL1        0.0563
     18 C         139.4588  147.1532  155.6528 C.ar    1  UNL1        0.1471
     19 N         139.4550  148.5116  155.0165 N.pl3   1  UNL1       -0.3412
     20 N         139.9987  146.8175  157.0114 N.ar    1  UNL1       -0.1504
     21 H         139.0760  148.6322  154.1159 H       1  UNL1        0.1438
     22 H         139.8316  149.2824  155.4994 H       1  UNL1        0.1438
     23 C         143.5431  138.8873  165.7531 C.3     1  UNL1        0.1135
     24 N         142.5532  140.0100  165.8515 N.pl3   1  UNL1       -0.2916
     25 C         141.9571  140.3700  167.1800 C.3     1  UNL1        0.0768
     26 C         142.7751  141.1169  168.1915 C.3     1  UNL1        0.0342
     27 C         142.1790  141.4770  169.5200 C.3     1  UNL1        0.0435
     28 C         142.0596  142.0391  170.9055 C.3     1  UNL1        0.0158
     29 C         143.5517  142.0590  169.6841 C.3     1  UNL1        0.0158
     30 N         140.7649  141.0902  169.8371 N.3     1  UNL1       -0.3015
     31 C         139.9468  140.3433  168.8256 C.3     1  UNL1        0.0435
     32 C         138.7812  139.6362  168.2001 C.3     1  UNL1        0.0158
     33 C         138.9459  140.4578  169.9369 C.3     1  UNL1        0.0158
     34 C         140.5429  139.9832  167.4971 C.3     1  UNL1        0.0342
     35 H         140.2624  141.9537  170.0425 H       1  UNL1        0.1231
@<TRIPOS>BOND
     1    23    24    1
     2    24     1    1
     3     1     2   ar
     4     2     3   ar
     5     3     4   ar
     6     4     7    1
     7     7     8   ar
     8     8     9   ar
     9     9    10   ar
    10    10    15    1
    11    15    16   ar
    12    16    17   ar
    13    17    18   ar
    14    18    19    1
    15    18    20   ar
    16    10    11   ar
    17    11    12   ar
    18    12    13    1
    19     4     5   ar
    20     5     6   ar
    21    24    25    1
    22    25    26    1
    23    26    27    1
    24    27    28    1
    25    27    29    1
    26    27    30    1
    27    30    31    1
    28    31    32    1
    29    31    33    1
    30    31    34    1
    31     6     1   ar
    32    34    25    1
    33    12     7   ar
    34    20    15   ar
    35    19    21    1
    36    19    22    1
    37    13    14    1
    38    30    35    1
@<TRIPOS>MOLECULE
*****
 35 38 0 0 0
SMALL
GASTEIGER

@<TRIPOS>ATOM
      1 C         143.2878  139.7125  159.0509 C.ar    1  UNL1        0.1535
      2 C         142.4381  140.8346  159.5695 C.ar    1  UNL1        0.0377
      3 C         142.3838  141.1155  161.0419 C.ar    1  UNL1        0.0239
      4 C         143.1792  140.2744  161.9958 C.ar    1  UNL1        0.1059
      5 N         144.0289  139.1524  161.4772 N.ar    1  UNL1       -0.1467
      6 N         144.0832  138.8714  160.0048 N.ar    1  UNL1       -0.1329
      7 C         143.1249  140.5555  163.4683 C.ar    1  UNL1        0.0532
      8 C         143.4665  141.9219  163.9841 C.ar    1  UNL1        0.0061
      9 C         143.4122  142.2029  165.4566 C.ar    1  UNL1        0.0194
     10 C         143.0163  141.1174  166.4132 C.ar    1  UNL1        0.0859
     11 C         142.6747  139.7509  165.8973 C.ar    1  UNL1        0.0558
     12 C         142.7290  139.4700  164.4248 C.ar    1  UNL1        0.1366
     13 O         142.3874  138.1035  163.9089 O.3     1  UNL1       -0.5054
     14 H         142.1401  137.4254  164.5064 H       1  UNL1        0.2922
     15 N         142.9619  141.3984  167.8856 N.ar    1  UNL1       -0.2269
     16 C         142.5560  140.4271  168.9542 C.ar    1  UNL1        0.1033
     17 C         142.6472  141.1283  170.2770 C.ar    1  UNL1        0.0563
     18 C         143.1095  142.5331  170.0260 C.ar    1  UNL1        0.1471
     19 N         143.3372  143.5861  171.0697 N.pl3   1  UNL1       -0.3412
     20 N         143.3040  142.7000  168.5480 N.ar    1  UNL1       -0.1504
     21 H         143.1813  143.3796  172.0195 H       1  UNL1        0.1438
     22 H         143.6427  144.4838  170.8048 H       1  UNL1        0.1438
     23 C         144.2605  140.2248  156.6969 C.3     1  UNL1        0.1135
     24 N         143.3421  139.4315  157.5785 N.pl3   1  UNL1       -0.2916
     25 C         142.4780  138.3572  156.9876 C.3     1  UNL1        0.0768
     26 C         143.0300  136.9771  156.7857 C.3     1  UNL1        0.0342
     27 C         142.1659  135.9028  156.1948 C.3     1  UNL1        0.0435
     28 C         141.7425  134.5604  155.6765 C.3     1  UNL1        0.0158
     29 C         143.4349  135.1309  156.4038 C.3     1  UNL1        0.0158
     30 N         140.7498  136.2085  155.8059 N.3     1  UNL1       -0.3015
     31 C         140.1978  137.5886  156.0078 C.3     1  UNL1        0.0435
     32 C         139.2289  138.7336  156.0041 C.3     1  UNL1        0.0158
     33 C         138.9973  136.9119  155.4157 C.3     1  UNL1        0.0158
     34 C         141.0619  138.6629  156.5987 C.3     1  UNL1        0.0342
     35 H         140.1548  135.5727  156.3371 H       1  UNL1        0.1231
@<TRIPOS>BOND
     1    23    24    1
     2    24     1    1
     3     1     2   ar
     4     2     3   ar
     5     3     4   ar
     6     4     7    1
     7     7     8   ar
     8     8     9   ar
     9     9    10   ar
    10    10    15    1
    11    15    16   ar
    12    16    17   ar
    13    17    18   ar
    14    18    19    1
    15    18    20   ar
    16    10    11   ar
    17    11    12   ar
    18    12    13    1
    19     4     5   ar
    20     5     6   ar
    21    24    25    1
    22    25    26    1
    23    26    27    1
    24    27    28    1
    25    27    29    1
    26    27    30    1
    27    30    31    1
    28    31    32    1
    29    31    33    1
    30    31    34    1
    31     6     1   ar
    32    34    25    1
    33    12     7   ar
    34    20    15   ar
    35    19    21    1
    36    19    22    1
    37    13    14    1
    38    30    35    1
@<TRIPOS>MOLECULE
*****
 35 38 0 0 0
SMALL
GASTEIGER

@<TRIPOS>ATOM
      1 C         141.6000  142.3670  164.8887 C.ar    1  UNL1        0.1535
      2 C         140.4272  143.2369  164.5454 C.ar    1  UNL1        0.0377
      3 C         140.2407  143.7234  163.1388 C.ar    1  UNL1        0.0239
      4 C         141.2269  143.3401  162.0756 C.ar    1  UNL1        0.1059
      5 N         142.3996  142.4702  162.4189 N.ar    1  UNL1       -0.1467
      6 N         142.5862  141.9836  163.8255 N.ar    1  UNL1       -0.1329
      7 C         141.0403  143.8266  160.6690 C.ar    1  UNL1        0.0532
      8 C         140.5545  145.2232  160.4167 C.ar    1  UNL1        0.0061
      9 C         140.3679  145.7097  159.0101 C.ar    1  UNL1        0.0194
     10 C         140.6671  144.7998  157.8558 C.ar    1  UNL1        0.0859
     11 C         141.1530  143.4032  158.1081 C.ar    1  UNL1        0.0558
     12 C         141.3395  142.9167  159.5147 C.ar    1  UNL1        0.1366
     13 O         141.8254  141.5201  159.7670 O.3     1  UNL1       -0.5054
     14 H         142.0123  140.9516  159.0460 H       1  UNL1        0.2922
     15 N         140.4805  145.2863  156.4493 N.ar    1  UNL1       -0.2269
     16 C         140.6423  144.4661  155.2038 C.ar    1  UNL1        0.1033
     17 C         140.3612  145.3513  154.0260 C.ar    1  UNL1        0.0563
     18 C         140.0256  146.7187  154.5435 C.ar    1  UNL1        0.1471
     19 N         139.6774  147.9160  153.7097 N.pl3   1  UNL1       -0.3412
     20 N         140.0994  146.6784  156.0412 N.ar    1  UNL1       -0.1504
     21 H         139.6552  147.8427  152.7282 H       1  UNL1        0.1438
     22 H         139.4712  148.7751  154.1440 H       1  UNL1        0.1438
     23 C         143.0600  142.1792  167.0296 C.3     1  UNL1        0.1135
     24 N         141.7866  141.8804  166.2953 N.pl3   1  UNL1       -0.2916
     25 C         140.6998  141.0950  166.9676 C.3     1  UNL1        0.0768
     26 C         140.4453  141.2710  168.4353 C.3     1  UNL1        0.0342
     27 C         139.3585  140.4856  169.1076 C.3     1  UNL1        0.0435
     28 C         138.4513  139.9722  170.1861 C.3     1  UNL1        0.0158
     29 C         139.8758  141.2688  170.2776 C.3     1  UNL1        0.0158
     30 N         138.5261  139.5242  168.3121 N.3     1  UNL1       -0.3015
     31 C         138.7806  139.3481  166.8443 C.3     1  UNL1        0.0435
     32 C         138.6408  138.8377  165.4408 C.3     1  UNL1        0.0158
     33 C         137.6452  138.3854  167.0292 C.3     1  UNL1        0.0158
     34 C         139.8674  140.1335  166.1721 C.3     1  UNL1        0.0342
     35 H         137.5562  139.8245  168.4089 H       1  UNL1        0.1231
@<TRIPOS>BOND
     1    23    24    1
     2    24     1    1
     3     1     2   ar
     4     2     3   ar
     5     3     4   ar
     6     4     7    1
     7     7     8   ar
     8     8     9   ar
     9     9    10   ar
    10    10    15    1
    11    15    16   ar
    12    16    17   ar
    13    17    18   ar
    14    18    19    1
    15    18    20   ar
    16    10    11   ar
    17    11    12   ar
    18    12    13    1
    19     4     5   ar
    20     5     6   ar
    21    24    25    1
    22    25    26    1
    23    26    27    1
    24    27    28    1
    25    27    29    1
    26    27    30    1
    27    30    31    1
    28    31    32    1
    29    31    33    1
    30    31    34    1
    31     6     1   ar
    32    34    25    1
    33    12     7   ar
    34    20    15   ar
    35    19    21    1
    36    19    22    1
    37    13    14    1
    38    30    35    1
@<TRIPOS>MOLECULE
*****
 35 38 0 0 0
SMALL
GASTEIGER

@<TRIPOS>ATOM
      1 C         139.8773  144.9722  157.3314 C.ar    1  UNL1        0.1535
      2 C         140.9318  145.6785  158.1308 C.ar    1  UNL1        0.0377
      3 C         141.1378  145.3293  159.5749 C.ar    1  UNL1        0.0239
      4 C         140.2893  144.2737  160.2197 C.ar    1  UNL1        0.1059
      5 N         139.2347  143.5674  159.4204 N.ar    1  UNL1       -0.1467
      6 N         139.0287  143.9167  157.9762 N.ar    1  UNL1       -0.1329
      7 C         140.4953  143.9245  161.6639 C.ar    1  UNL1        0.0532
      8 C         141.8831  143.7223  162.1960 C.ar    1  UNL1        0.0061
      9 C         142.0891  143.3730  163.6402 C.ar    1  UNL1        0.0194
     10 C         140.9073  143.2261  164.5522 C.ar    1  UNL1        0.0859
     11 C         139.5195  143.4283  164.0201 C.ar    1  UNL1        0.0558
     12 C         139.3135  143.7775  162.5759 C.ar    1  UNL1        0.1366
     13 O         137.9257  143.9798  162.0438 O.3     1  UNL1       -0.5054
     14 H         137.1875  143.8880  162.6135 H       1  UNL1        0.2922
     15 N         141.1133  142.8769  165.9964 N.ar    1  UNL1       -0.2269
     16 C         140.1116  143.0560  167.0984 C.ar    1  UNL1        0.1033
     17 C         140.7363  142.5771  168.3752 C.ar    1  UNL1        0.0563
     18 C         142.1243  142.1019  168.0623 C.ar    1  UNL1        0.1471
     19 N         143.1068  141.5400  169.0467 N.pl3   1  UNL1       -0.3412
     20 N         142.3573  142.2872  166.5921 N.ar    1  UNL1       -0.1504
     21 H         142.8598  141.4575  169.9961 H       1  UNL1        0.1438
     22 H         143.9986  141.2538  168.7434 H       1  UNL1        0.1438
     23 C         139.5320  144.2328  154.8648 C.3     1  UNL1        0.1135
     24 N         139.6712  145.3214  155.8872 N.pl3   1  UNL1       -0.2916
     25 C         139.6044  146.7594  155.4655 C.3     1  UNL1        0.0768
     26 C         138.9321  147.7692  156.3476 C.3     1  UNL1        0.0342
     27 C         138.8653  149.2072  155.9258 C.3     1  UNL1        0.0435
     28 C         138.5502  150.6732  155.9612 C.3     1  UNL1        0.0158
     29 C         138.1503  149.2882  157.2420 C.3     1  UNL1        0.0158
     30 N         139.4709  149.6353  154.6220 N.3     1  UNL1       -0.3015
     31 C         140.1433  148.6254  153.7399 C.3     1  UNL1        0.0435
     32 C         140.8815  148.0449  152.5702 C.3     1  UNL1        0.0158
     33 C         140.3328  149.8617  152.9120 C.3     1  UNL1        0.0158
     34 C         140.2101  147.1875  154.1616 C.3     1  UNL1        0.0342
     35 H         140.1688  150.3462  154.8409 H       1  UNL1        0.1231
@<TRIPOS>BOND
     1    23    24    1
     2    24     1    1
     3     1     2   ar
     4     2     3   ar
     5     3     4   ar
     6     4     7    1
     7     7     8   ar
     8     8     9   ar
     9     9    10   ar
    10    10    15    1
    11    15    16   ar
    12    16    17   ar
    13    17    18   ar
    14    18    19    1
    15    18    20   ar
    16    10    11   ar
    17    11    12   ar
    18    12    13    1
    19     4     5   ar
    20     5     6   ar
    21    24    25    1
    22    25    26    1
    23    26    27    1
    24    27    28    1
    25    27    29    1
    26    27    30    1
    27    30    31    1
    28    31    32    1
    29    31    33    1
    30    31    34    1
    31     6     1   ar
    32    34    25    1
    33    12     7   ar
    34    20    15   ar
    35    19    21    1
    36    19    22    1
    37    13    14    1
    38    30    35    1
@<TRIPOS>MOLECULE
*****
 35 38 0 0 0
SMALL
GASTEIGER

@<TRIPOS>ATOM
      1 C         142.1002  140.7097  164.4501 C.ar    1  UNL1        0.1535
      2 C         140.6797  140.8799  163.9994 C.ar    1  UNL1        0.0377
      3 C         140.3764  141.6575  162.7531 C.ar    1  UNL1        0.0239
      4 C         141.4936  142.2650  161.9576 C.ar    1  UNL1        0.1059
      5 N         142.9141  142.0948  162.4084 N.ar    1  UNL1       -0.1467
      6 N         143.2174  141.3171  163.6546 N.ar    1  UNL1       -0.1329
      7 C         141.1903  143.0427  160.7113 C.ar    1  UNL1        0.0532
      8 C         140.4661  142.3848  159.5744 C.ar    1  UNL1        0.0061
      9 C         140.1627  143.1625  158.3280 C.ar    1  UNL1        0.0194
     10 C         140.5837  144.5981  158.2187 C.ar    1  UNL1        0.0859
     11 C         141.3079  145.2560  159.3557 C.ar    1  UNL1        0.0558
     12 C         141.6112  144.4783  160.6020 C.ar    1  UNL1        0.1366
     13 O         142.3355  145.1361  161.7390 O.3     1  UNL1       -0.5054
     14 H         142.5984  146.0329  161.6707 H       1  UNL1        0.2922
     15 N         140.2804  145.3758  156.9725 N.ar    1  UNL1       -0.2269
     16 C         139.6523  146.7367  156.9134 C.ar    1  UNL1        0.1033
     17 C         139.5357  147.1312  155.4709 C.ar    1  UNL1        0.0563
     18 C         140.0916  146.0140  154.6385 C.ar    1  UNL1        0.1471
     19 N         140.1730  145.9865  153.1409 N.pl3   1  UNL1       -0.3412
     20 N         140.5518  144.9291  155.5665 N.ar    1  UNL1       -0.1504
     21 H         139.8428  146.7510  152.6159 H       1  UNL1        0.1438
     22 H         140.5567  145.2039  152.6831 H       1  UNL1        0.1438
     23 C         143.2430  138.6912  165.6206 C.3     1  UNL1        0.1135
     24 N         142.4035  139.9320  165.6965 N.pl3   1  UNL1       -0.2916
     25 C         141.8673  140.3950  167.0186 C.3     1  UNL1        0.0768
     26 C         140.4939  139.9813  167.4574 C.3     1  UNL1        0.0342
     27 C         139.9577  140.4444  168.7795 C.3     1  UNL1        0.0435
     28 C         139.0173  140.6247  169.9341 C.3     1  UNL1        0.0158
     29 C         138.7939  139.6302  168.2972 C.3     1  UNL1        0.0158
     30 N         140.7949  141.3212  169.6628 N.3     1  UNL1       -0.3015
     31 C         142.1683  141.7350  169.2240 C.3     1  UNL1        0.0435
     32 C         143.5183  142.3884  169.2472 C.3     1  UNL1        0.0158
     33 C         142.1009  142.4250  170.5542 C.3     1  UNL1        0.0158
     34 C         142.7045  141.2719  167.9019 C.3     1  UNL1        0.0342
     35 H         140.9050  140.8275  170.5486 H       1  UNL1        0.1231
@<TRIPOS>BOND
     1    23    24    1
     2    24     1    1
     3     1     2   ar
     4     2     3   ar
     5     3     4   ar
     6     4     7    1
     7     7     8   ar
     8     8     9   ar
     9     9    10   ar
    10    10    15    1
    11    15    16   ar
    12    16    17   ar
    13    17    18   ar
    14    18    19    1
    15    18    20   ar
    16    10    11   ar
    17    11    12   ar
    18    12    13    1
    19     4     5   ar
    20     5     6   ar
    21    24    25    1
    22    25    26    1
    23    26    27    1
    24    27    28    1
    25    27    29    1
    26    27    30    1
    27    30    31    1
    28    31    32    1
    29    31    33    1
    30    31    34    1
    31     6     1   ar
    32    34    25    1
    33    12     7   ar
    34    20    15   ar
    35    19    21    1
    36    19    22    1
    37    13    14    1
    38    30    35    1
@<TRIPOS>MOLECULE
*****
 35 38 0 0 0
SMALL
GASTEIGER

@<TRIPOS>ATOM
      1 C         141.7537  140.9528  164.0554 C.ar    1  UNL1        0.1535
      2 C         140.4614  141.6906  163.8670 C.ar    1  UNL1        0.0377
      3 C         140.2124  142.4558  162.6011 C.ar    1  UNL1        0.0239
      4 C         141.2556  142.4832  161.5237 C.ar    1  UNL1        0.1059
      5 N         142.5479  141.7454  161.7121 N.ar    1  UNL1       -0.1467
      6 N         142.7970  140.9802  162.9779 N.ar    1  UNL1       -0.1329
      7 C         141.0065  143.2484  160.2578 C.ar    1  UNL1        0.0532
      8 C         140.3274  142.5806  159.0990 C.ar    1  UNL1        0.0061
      9 C         140.0783  143.3458  157.8331 C.ar    1  UNL1        0.0194
     10 C         140.5083  144.7789  157.7260 C.ar    1  UNL1        0.0859
     11 C         141.1875  145.4467  158.8849 C.ar    1  UNL1        0.0558
     12 C         141.4366  144.6814  160.1507 C.ar    1  UNL1        0.1366
     13 O         142.1158  145.3492  161.3095 O.3     1  UNL1       -0.5054
     14 H         142.3844  146.2444  161.2427 H       1  UNL1        0.2922
     15 N         140.2593  145.5441  156.4602 N.ar    1  UNL1       -0.2269
     16 C         139.4819  146.8214  156.3405 C.ar    1  UNL1        0.1033
     17 C         139.4860  147.2331  154.8982 C.ar    1  UNL1        0.0563
     18 C         140.2660  146.2103  154.1264 C.ar    1  UNL1        0.1471
     19 N         140.5229  146.2282  152.6487 N.pl3   1  UNL1       -0.3412
     20 N         140.7438  145.1664  155.0918 N.ar    1  UNL1       -0.1504
     21 H         140.1654  146.9600  152.0957 H       1  UNL1        0.1438
     22 H         141.0491  145.5081  152.2318 H       1  UNL1        0.1438
     23 C         143.3793  139.6785  165.6314 C.3     1  UNL1        0.1135
     24 N         142.0028  140.1876  165.3213 N.pl3   1  UNL1       -0.2916
     25 C         140.8754  139.9314  166.2770 C.3     1  UNL1        0.0768
     26 C         140.8696  140.5912  167.6240 C.3     1  UNL1        0.0342
     27 C         139.7422  140.3351  168.5797 C.3     1  UNL1        0.0435
     28 C         138.9031  140.4055  169.8210 C.3     1  UNL1        0.0158
     29 C         140.5723  141.2755  169.4022 C.3     1  UNL1        0.0158
     30 N         138.6207  139.4191  168.1884 N.3     1  UNL1       -0.3015
     31 C         138.6265  138.7593  166.8413 C.3     1  UNL1        0.0435
     32 C         138.1879  137.9079  165.6868 C.3     1  UNL1        0.0158
     33 C         137.3468  138.2075  167.3960 C.3     1  UNL1        0.0158
     34 C         139.7539  139.0155  165.8856 C.3     1  UNL1        0.0342
     35 H         137.7611  139.9653  168.2450 H       1  UNL1        0.1231
@<TRIPOS>BOND
     1    23    24    1
     2    24     1    1
     3     1     2   ar
     4     2     3   ar
     5     3     4   ar
     6     4     7    1
     7     7     8   ar
     8     8     9   ar
     9     9    10   ar
    10    10    15    1
    11    15    16   ar
    12    16    17   ar
    13    17    18   ar
    14    18    19    1
    15    18    20   ar
    16    10    11   ar
    17    11    12   ar
    18    12    13    1
    19     4     5   ar
    20     5     6   ar
    21    24    25    1
    22    25    26    1
    23    26    27    1
    24    27    28    1
    25    27    29    1
    26    27    30    1
    27    30    31    1
    28    31    32    1
    29    31    33    1
    30    31    34    1
    31     6     1   ar
    32    34    25    1
    33    12     7   ar
    34    20    15   ar
    35    19    21    1
    36    19    22    1
    37    13    14    1
    38    30    35    1
