@<TRIPOS>MOLECULE
*****
 26 28 0 0 0
SMALL
GASTEIGER

@<TRIPOS>ATOM
      1 C         142.1216  140.4885  168.5585 C.ar    1  UNL1        0.1721
      2 C         142.6527  139.5500  167.5158 C.ar    1  UNL1        0.0356
      3 C         141.7994  139.1737  166.3410 C.ar    1  UNL1       -0.0203
      4 C         140.4150  139.7358  166.2088 C.ar    1  UNL1       -0.0084
      5 C         139.8840  140.6742  167.2515 C.ar    1  UNL1        0.0368
      6 C         140.7373  141.0506  168.4263 C.ar    1  UNL1        0.1721
      7 C         139.5617  139.3594  165.0339 C.3     1  UNL1        0.0827
      8 N         140.0928  138.4210  163.9913 N.3     1  UNL1       -0.2687
      9 C         139.2395  138.0446  162.8164 C.3     1  UNL1        0.0899
     10 C         141.4772  137.8588  164.1234 C.3     1  UNL1        0.0771
     11 C         142.3305  138.2351  165.2983 C.3     1  UNL1        0.0435
     12 C         143.7426  142.1533  169.7205 C.3     1  UNL1        0.2526
     13 O         142.9749  140.8648  169.7333 O.3     1  UNL1       -0.4684
     14 O         140.2061  141.9891  169.4690 O.3     1  UNL1       -0.4684
     15 C         140.4033  143.4683  169.3170 C.3     1  UNL1        0.2526
     16 C         138.1774  139.9216  164.9018 C.3     1  UNL1        0.0543
     17 C         137.9348  141.1217  164.0353 C.3     1  UNL1        0.1344
     18 O         136.6748  141.2212  163.2275 O.3     1  UNL1       -0.3800
     19 H         136.6760  142.0525  162.7277 H       1  UNL1        0.2108
     20 C         138.9522  142.2224  163.9766 C.ar    1  UNL1        0.0043
     21 C         140.1367  142.1010  163.0644 C.ar    1  UNL1       -0.0011
     22 C         141.1541  143.2017  163.0057 C.ar    1  UNL1        0.0111
     23 C         140.9870  144.4238  163.8593 C.ar    1  UNL1        0.0577
     24 CL        142.0044  145.5244  163.8007 Cl      1  UNL1       -0.0822
     25 C         139.8025  144.5451  164.7716 C.ar    1  UNL1        0.0111
     26 C         138.7851  143.4445  164.8302 C.ar    1  UNL1       -0.0011
@<TRIPOS>BOND
     1    12    13    1
     2    13     1    1
     3     1     2   ar
     4     2     3   ar
     5     3     4   ar
     6     4     5   ar
     7     5     6   ar
     8     6    14    1
     9    14    15    1
    10     4     7    1
    11     7    16    1
    12    16    17    1
    13    17    18    1
    14    17    20    1
    15    20    21   ar
    16    21    22   ar
    17    22    23   ar
    18    23    24    1
    19    23    25   ar
    20    25    26   ar
    21     7     8    1
    22     8     9    1
    23     8    10    1
    24    10    11    1
    25     6     1   ar
    26    26    20   ar
    27    11     3    1
    28    18    19    1
@<TRIPOS>MOLECULE
*****
 26 28 0 0 0
SMALL
GASTEIGER

@<TRIPOS>ATOM
      1 C         140.3091  140.6744  168.0987 C.ar    1  UNL1        0.1721
      2 C         139.5618  140.0143  166.9782 C.ar    1  UNL1        0.0356
      3 C         139.1992  140.8001  165.7530 C.ar    1  UNL1       -0.0203
      4 C         139.5840  142.2461  165.6484 C.ar    1  UNL1       -0.0084
      5 C         140.3313  142.9063  166.7689 C.ar    1  UNL1        0.0368
      6 C         140.6939  142.1204  167.9941 C.ar    1  UNL1        0.1721
      7 C         139.2214  143.0319  164.4232 C.3     1  UNL1        0.0827
      8 N         138.4741  142.3717  163.3027 N.3     1  UNL1       -0.2687
      9 C         138.1115  143.1575  162.0775 C.3     1  UNL1        0.0899
     10 C         138.0893  140.9256  163.4073 C.3     1  UNL1        0.0771
     11 C         138.4518  140.1398  164.6325 C.3     1  UNL1        0.0435
     12 C         142.0841  139.4267  169.5279 C.3     1  UNL1        0.2526
     13 O         140.6716  139.8886  169.3239 O.3     1  UNL1       -0.4684
     14 O         141.4412  142.7807  169.1146 O.3     1  UNL1       -0.4684
     15 C         140.7634  143.8186  169.9592 C.3     1  UNL1        0.2526
     16 C         139.6062  144.4779  164.3186 C.3     1  UNL1        0.0543
     17 C         140.8177  144.8764  163.5289 C.3     1  UNL1        0.1344
     18 O         140.7920  146.1218  162.6933 O.3     1  UNL1       -0.3800
     19 H         141.6484  146.2324  162.2515 H       1  UNL1        0.2108
     20 C         142.0549  144.0294  163.5749 C.ar    1  UNL1        0.0043
     21 C         142.2338  142.9092  162.5935 C.ar    1  UNL1       -0.0011
     22 C         143.4710  142.0623  162.6395 C.ar    1  UNL1        0.0111
     23 C         144.5292  142.3355  163.6669 C.ar    1  UNL1        0.0577
     24 CL        145.7663  141.4886  163.7129 Cl      1  UNL1       -0.0822
     25 C         144.3502  143.4557  164.6483 C.ar    1  UNL1        0.0111
     26 C         143.1130  144.3026  164.6023 C.ar    1  UNL1       -0.0011
@<TRIPOS>BOND
     1    12    13    1
     2    13     1    1
     3     1     2   ar
     4     2     3   ar
     5     3     4   ar
     6     4     5   ar
     7     5     6   ar
     8     6    14    1
     9    14    15    1
    10     4     7    1
    11     7    16    1
    12    16    17    1
    13    17    18    1
    14    17    20    1
    15    20    21   ar
    16    21    22   ar
    17    22    23   ar
    18    23    24    1
    19    23    25   ar
    20    25    26   ar
    21     7     8    1
    22     8     9    1
    23     8    10    1
    24    10    11    1
    25     6     1   ar
    26    26    20   ar
    27    11     3    1
    28    18    19    1
@<TRIPOS>MOLECULE
*****
 26 28 0 0 0
SMALL
GASTEIGER

@<TRIPOS>ATOM
      1 C         140.7457  140.6588  169.1736 C.ar    1  UNL1        0.1721
      2 C         139.6176  140.2742  168.2630 C.ar    1  UNL1        0.0356
      3 C         139.9087  139.6492  166.9309 C.ar    1  UNL1       -0.0203
      4 C         141.3280  139.4087  166.5094 C.ar    1  UNL1       -0.0084
      5 C         142.4562  139.7933  167.4200 C.ar    1  UNL1        0.0368
      6 C         142.1650  140.4184  168.7521 C.ar    1  UNL1        0.1721
      7 C         141.6192  138.7837  165.1773 C.3     1  UNL1        0.0827
      8 N         140.4910  138.3991  164.2667 N.3     1  UNL1       -0.2687
      9 C         140.7822  137.7740  162.9345 C.3     1  UNL1        0.0899
     10 C         139.0716  138.6395  164.6881 C.3     1  UNL1        0.0771
     11 C         138.7805  139.2645  166.0203 C.3     1  UNL1        0.0435
     12 C         139.9956  142.7099  170.5808 C.3     1  UNL1        0.2526
     13 O         140.4546  141.2839  170.5058 O.3     1  UNL1       -0.4684
     14 O         143.2933  140.8030  169.6628 O.3     1  UNL1       -0.4684
     15 C         143.7392  142.2330  169.7418 C.3     1  UNL1        0.2526
     16 C         143.0385  138.5432  164.7558 C.3     1  UNL1        0.0543
     17 C         143.7066  139.4856  163.7989 C.3     1  UNL1        0.1344
     18 O         144.7058  138.9654  162.8085 O.3     1  UNL1       -0.3800
     19 H         145.0398  139.6998  162.2700 H       1  UNL1        0.2108
     20 C         143.3754  140.9482  163.8324 C.ar    1  UNL1        0.0043
     21 C         142.3662  141.5108  162.8758 C.ar    1  UNL1       -0.0011
     22 C         142.0350  142.9735  162.9093 C.ar    1  UNL1        0.0111
     23 C         142.7130  143.8735  163.8994 C.ar    1  UNL1        0.0577
     24 CL        142.3819  145.3360  163.9330 Cl      1  UNL1       -0.0822
     25 C         143.7223  143.3108  164.8560 C.ar    1  UNL1        0.0111
     26 C         144.0534  141.8482  164.8225 C.ar    1  UNL1       -0.0011
@<TRIPOS>BOND
     1    12    13    1
     2    13     1    1
     3     1     2   ar
     4     2     3   ar
     5     3     4   ar
     6     4     5   ar
     7     5     6   ar
     8     6    14    1
     9    14    15    1
    10     4     7    1
    11     7    16    1
    12    16    17    1
    13    17    18    1
    14    17    20    1
    15    20    21   ar
    16    21    22   ar
    17    22    23   ar
    18    23    24    1
    19    23    25   ar
    20    25    26   ar
    21     7     8    1
    22     8     9    1
    23     8    10    1
    24    10    11    1
    25     6     1   ar
    26    26    20   ar
    27    11     3    1
    28    18    19    1
@<TRIPOS>MOLECULE
*****
 26 28 0 0 0
SMALL
GASTEIGER

@<TRIPOS>ATOM
      1 C         142.2183  140.3875  168.3673 C.ar    1  UNL1        0.1721
      2 C         142.5656  139.4102  167.2837 C.ar    1  UNL1        0.0356
      3 C         143.1517  139.8991  165.9924 C.ar    1  UNL1       -0.0203
      4 C         143.3906  141.3653  165.7847 C.ar    1  UNL1       -0.0084
      5 C         143.0433  142.3426  166.8683 C.ar    1  UNL1        0.0368
      6 C         142.4572  141.8537  168.1596 C.ar    1  UNL1        0.1721
      7 C         143.9768  141.8542  164.4935 C.3     1  UNL1        0.0827
      8 N         144.3241  140.8769  163.4098 N.3     1  UNL1       -0.2687
      9 C         144.9103  141.3658  162.1186 C.3     1  UNL1        0.0899
     10 C         144.0852  139.4106  163.6175 C.3     1  UNL1        0.0771
     11 C         143.4990  138.9217  164.9087 C.3     1  UNL1        0.0435
     12 C         140.1721  140.0944  169.9411 C.3     1  UNL1        0.2526
     13 O         141.6321  139.8986  169.6585 O.3     1  UNL1       -0.4684
     14 O         142.1099  142.8310  169.2432 O.3     1  UNL1       -0.4684
     15 C         143.0148  142.9890  170.4290 C.3     1  UNL1        0.2526
     16 C         144.2157  143.3204  164.2858 C.3     1  UNL1        0.0543
     17 C         143.2252  144.1395  163.5125 C.3     1  UNL1        0.1344
     18 O         143.6783  145.3646  162.7750 O.3     1  UNL1       -0.3800
     19 H         142.9192  145.7741  162.3313 H       1  UNL1        0.2108
     20 C         141.7816  143.7336  163.4768 C.ar    1  UNL1        0.0043
     21 C         140.8311  144.2509  164.5154 C.ar    1  UNL1       -0.0011
     22 C         139.3874  143.8450  164.4797 C.ar    1  UNL1        0.0111
     23 C         138.8944  142.9217  163.4052 C.ar    1  UNL1        0.0577
     24 CL        137.4508  142.5157  163.3695 Cl      1  UNL1       -0.0822
     25 C         139.8450  142.4043  162.3665 C.ar    1  UNL1        0.0111
     26 C         141.2885  142.8103  162.4023 C.ar    1  UNL1       -0.0011
@<TRIPOS>BOND
     1    12    13    1
     2    13     1    1
     3     1     2   ar
     4     2     3   ar
     5     3     4   ar
     6     4     5   ar
     7     5     6   ar
     8     6    14    1
     9    14    15    1
    10     4     7    1
    11     7    16    1
    12    16    17    1
    13    17    18    1
    14    17    20    1
    15    20    21   ar
    16    21    22   ar
    17    22    23   ar
    18    23    24    1
    19    23    25   ar
    20    25    26   ar
    21     7     8    1
    22     8     9    1
    23     8    10    1
    24    10    11    1
    25     6     1   ar
    26    26    20   ar
    27    11     3    1
    28    18    19    1
@<TRIPOS>MOLECULE
*****
 26 28 0 0 0
SMALL
GASTEIGER

@<TRIPOS>ATOM
      1 C         140.7912  141.0888  168.0182 C.ar    1  UNL1        0.1721
      2 C         140.3102  140.1110  166.9874 C.ar    1  UNL1        0.0356
      3 C         141.1973  139.7367  165.8372 C.ar    1  UNL1       -0.0203
      4 C         142.5653  140.3402  165.7177 C.ar    1  UNL1       -0.0084
      5 C         143.0462  141.3180  166.7484 C.ar    1  UNL1        0.0368
      6 C         142.1592  141.6923  167.8987 C.ar    1  UNL1        0.1721
      7 C         143.4523  139.9659  164.5675 C.3     1  UNL1        0.0827
      8 N         142.9713  138.9880  163.5367 N.3     1  UNL1       -0.2687
      9 C         143.8584  138.6137  162.3865 C.3     1  UNL1        0.0899
     10 C         141.6033  138.3845  163.6562 C.3     1  UNL1        0.0771
     11 C         140.7162  138.7588  164.8064 C.3     1  UNL1        0.0435
     12 C         139.0264  140.4277  169.8066 C.3     1  UNL1        0.2526
     13 O         139.9042  141.4632  169.1684 O.3     1  UNL1       -0.4684
     14 O         142.6402  142.6702  168.9295 O.3     1  UNL1       -0.4684
     15 C         143.8062  142.3225  169.8067 C.3     1  UNL1        0.2526
     16 C         144.8203  140.5694  164.4480 C.3     1  UNL1        0.0543
     17 C         145.0487  141.7343  163.5310 C.3     1  UNL1        0.1344
     18 O         146.3803  141.9144  162.8646 O.3     1  UNL1       -0.3800
     19 H         146.3594  142.7100  162.3100 H       1  UNL1        0.2108
     20 C         143.9452  142.7191  163.2804 C.ar    1  UNL1        0.0043
     21 C         143.8051  143.9277  164.1577 C.ar    1  UNL1       -0.0011
     22 C         142.7017  144.9125  163.9071 C.ar    1  UNL1        0.0111
     23 C         141.7384  144.6886  162.7793 C.ar    1  UNL1        0.0577
     24 CL        140.6351  145.6733  162.5287 Cl      1  UNL1       -0.0822
     25 C         141.8786  143.4799  161.9020 C.ar    1  UNL1        0.0111
     26 C         142.9820  142.4952  162.1526 C.ar    1  UNL1       -0.0011
@<TRIPOS>BOND
     1    12    13    1
     2    13     1    1
     3     1     2   ar
     4     2     3   ar
     5     3     4   ar
     6     4     5   ar
     7     5     6   ar
     8     6    14    1
     9    14    15    1
    10     4     7    1
    11     7    16    1
    12    16    17    1
    13    17    18    1
    14    17    20    1
    15    20    21   ar
    16    21    22   ar
    17    22    23   ar
    18    23    24    1
    19    23    25   ar
    20    25    26   ar
    21     7     8    1
    22     8     9    1
    23     8    10    1
    24    10    11    1
    25     6     1   ar
    26    26    20   ar
    27    11     3    1
    28    18    19    1
@<TRIPOS>MOLECULE
*****
 26 28 0 0 0
SMALL
GASTEIGER

@<TRIPOS>ATOM
      1 C         140.0016  138.2004  162.8158 C.ar    1  UNL1        0.1721
      2 C         138.9227  138.1774  163.8575 C.ar    1  UNL1        0.0356
      3 C         139.1902  138.7284  165.2267 C.ar    1  UNL1       -0.0203
      4 C         140.5368  139.3025  165.5542 C.ar    1  UNL1       -0.0084
      5 C         141.6157  139.3255  164.5124 C.ar    1  UNL1        0.0368
      6 C         141.3481  138.7745  163.1432 C.ar    1  UNL1        0.1721
      7 C         140.8043  139.8536  166.9234 C.3     1  UNL1        0.0827
      8 N         139.7254  139.8306  167.9651 N.3     1  UNL1       -0.2687
      9 C         139.9929  140.3817  169.3343 C.3     1  UNL1        0.0899
     10 C         138.3788  139.2565  167.6377 C.3     1  UNL1        0.0771
     11 C         138.1112  138.7054  166.2685 C.3     1  UNL1        0.0435
     12 C         139.3088  138.5668  160.3388 C.3     1  UNL1        0.2526
     13 O         139.7341  137.6493  161.4466 O.3     1  UNL1       -0.4684
     14 O         142.4272  138.7975  162.1015 O.3     1  UNL1       -0.4684
     15 C         143.8612  138.6173  162.5028 C.3     1  UNL1        0.2526
     16 C         142.1508  140.4277  167.2508 C.3     1  UNL1        0.0543
     17 C         142.3783  141.9074  167.1569 C.3     1  UNL1        0.1344
     18 O         143.3659  142.5737  168.0682 O.3     1  UNL1       -0.3800
     19 H         143.3913  143.5245  167.8777 H       1  UNL1        0.2108
     20 C         141.6182  142.7207  166.1515 C.ar    1  UNL1        0.0043
     21 C         142.2757  143.1311  164.8673 C.ar    1  UNL1       -0.0011
     22 C         141.5156  143.9444  163.8619 C.ar    1  UNL1        0.0111
     23 C         140.0978  144.3473  164.1408 C.ar    1  UNL1        0.0577
     24 CL        139.3377  145.1606  163.1355 Cl      1  UNL1       -0.0822
     25 C         139.4403  143.9368  165.4250 C.ar    1  UNL1        0.0111
     26 C         140.2004  143.1235  166.4303 C.ar    1  UNL1       -0.0011
@<TRIPOS>BOND
     1    12    13    1
     2    13     1    1
     3     1     2   ar
     4     2     3   ar
     5     3     4   ar
     6     4     5   ar
     7     5     6   ar
     8     6    14    1
     9    14    15    1
    10     4     7    1
    11     7    16    1
    12    16    17    1
    13    17    18    1
    14    17    20    1
    15    20    21   ar
    16    21    22   ar
    17    22    23   ar
    18    23    24    1
    19    23    25   ar
    20    25    26   ar
    21     7     8    1
    22     8     9    1
    23     8    10    1
    24    10    11    1
    25     6     1   ar
    26    26    20   ar
    27    11     3    1
    28    18    19    1
@<TRIPOS>MOLECULE
*****
 26 28 0 0 0
SMALL
GASTEIGER

@<TRIPOS>ATOM
      1 C         141.2971  142.0895  168.0527 C.ar    1  UNL1        0.1721
      2 C         140.2932  142.6759  167.1049 C.ar    1  UNL1        0.0356
      3 C         139.7619  141.8510  165.9703 C.ar    1  UNL1       -0.0203
      4 C         140.2344  140.4397  165.7836 C.ar    1  UNL1       -0.0084
      5 C         141.2382  139.8533  166.7314 C.ar    1  UNL1        0.0368
      6 C         141.7696  140.6782  167.8659 C.ar    1  UNL1        0.1721
      7 C         139.7030  139.6147  164.6491 C.3     1  UNL1        0.0827
      8 N         138.6991  140.2011  163.7013 N.3     1  UNL1       -0.2687
      9 C         138.1678  139.3762  162.5668 C.3     1  UNL1        0.0899
     10 C         138.2266  141.6125  163.8880 C.3     1  UNL1        0.0771
     11 C         138.7579  142.4374  165.0225 C.3     1  UNL1        0.0435
     12 C         140.8948  143.7610  170.0005 C.3     1  UNL1        0.2526
     13 O         141.8285  142.9145  169.1872 O.3     1  UNL1       -0.4684
     14 O         142.7735  140.0918  168.8138 O.3     1  UNL1       -0.4684
     15 C         142.3157  139.2270  169.9506 C.3     1  UNL1        0.2526
     16 C         140.1755  138.2034  164.4624 C.3     1  UNL1        0.0543
     17 C         141.3423  137.9157  163.5647 C.3     1  UNL1        0.1344
     18 O         141.3605  136.6657  162.7358 O.3     1  UNL1       -0.3800
     19 H         142.1795  136.6337  162.2169 H       1  UNL1        0.2108
     20 C         142.4909  138.8780  163.4959 C.ar    1  UNL1        0.0043
     21 C         142.4981  139.9647  162.4620 C.ar    1  UNL1       -0.0011
     22 C         143.6467  140.9270  162.3932 C.ar    1  UNL1        0.0111
     23 C         144.7881  140.8027  163.3585 C.ar    1  UNL1        0.0577
     24 CL        145.9367  141.7649  163.2898 Cl      1  UNL1       -0.0822
     25 C         144.7809  139.7160  164.3925 C.ar    1  UNL1        0.0111
     26 C         143.6323  138.7537  164.4612 C.ar    1  UNL1       -0.0011
@<TRIPOS>BOND
     1    12    13    1
     2    13     1    1
     3     1     2   ar
     4     2     3   ar
     5     3     4   ar
     6     4     5   ar
     7     5     6   ar
     8     6    14    1
     9    14    15    1
    10     4     7    1
    11     7    16    1
    12    16    17    1
    13    17    18    1
    14    17    20    1
    15    20    21   ar
    16    21    22   ar
    17    22    23   ar
    18    23    24    1
    19    23    25   ar
    20    25    26   ar
    21     7     8    1
    22     8     9    1
    23     8    10    1
    24    10    11    1
    25     6     1   ar
    26    26    20   ar
    27    11     3    1
    28    18    19    1
@<TRIPOS>MOLECULE
*****
 26 28 0 0 0
SMALL
GASTEIGER

@<TRIPOS>ATOM
      1 C         140.7287  142.2399  168.1683 C.ar    1  UNL1        0.1721
      2 C         140.0072  142.8585  167.0078 C.ar    1  UNL1        0.0356
      3 C         140.7611  143.2202  165.7625 C.ar    1  UNL1       -0.0203
      4 C         142.2365  142.9633  165.6777 C.ar    1  UNL1       -0.0084
      5 C         142.9580  142.3448  166.8382 C.ar    1  UNL1        0.0368
      6 C         142.2041  141.9831  168.0835 C.ar    1  UNL1        0.1721
      7 C         142.9904  143.3250  164.4324 C.3     1  UNL1        0.0827
      8 N         142.2689  143.9435  163.2719 N.3     1  UNL1       -0.2687
      9 C         143.0228  144.3052  162.0265 C.3     1  UNL1        0.0899
     10 C         140.7934  144.2004  163.3567 C.3     1  UNL1        0.0771
     11 C         140.0396  143.8387  164.6020 C.3     1  UNL1        0.0435
     12 C         139.9418  142.8292  170.5732 C.3     1  UNL1        0.2526
     13 O         139.9748  141.8782  169.4137 O.3     1  UNL1       -0.4684
     14 O         142.9257  141.3645  169.2441 O.3     1  UNL1       -0.4684
     15 C         142.7029  139.9202  169.5822 C.3     1  UNL1        0.2526
     16 C         144.4658  143.0681  164.3475 C.3     1  UNL1        0.0543
     17 C         144.9705  141.7747  163.7798 C.3     1  UNL1        0.1344
     18 O         146.3875  141.6687  163.2995 O.3     1  UNL1       -0.3800
     19 H         146.5494  140.7726  162.9653 H       1  UNL1        0.2108
     20 C         144.0580  140.5872  163.6924 C.ar    1  UNL1        0.0043
     21 C         143.9046  139.6710  164.8701 C.ar    1  UNL1       -0.0011
     22 C         142.9922  138.4836  164.7827 C.ar    1  UNL1        0.0111
     23 C         142.2333  138.2124  163.5176 C.ar    1  UNL1        0.0577
     24 CL        141.3209  137.0251  163.4302 Cl      1  UNL1       -0.0822
     25 C         142.3867  139.1287  162.3399 C.ar    1  UNL1        0.0111
     26 C         143.2991  140.3161  162.4273 C.ar    1  UNL1       -0.0011
@<TRIPOS>BOND
     1    12    13    1
     2    13     1    1
     3     1     2   ar
     4     2     3   ar
     5     3     4   ar
     6     4     5   ar
     7     5     6   ar
     8     6    14    1
     9    14    15    1
    10     4     7    1
    11     7    16    1
    12    16    17    1
    13    17    18    1
    14    17    20    1
    15    20    21   ar
    16    21    22   ar
    17    22    23   ar
    18    23    24    1
    19    23    25   ar
    20    25    26   ar
    21     7     8    1
    22     8     9    1
    23     8    10    1
    24    10    11    1
    25     6     1   ar
    26    26    20   ar
    27    11     3    1
    28    18    19    1
@<TRIPOS>MOLECULE
*****
 26 28 0 0 0
SMALL
GASTEIGER

@<TRIPOS>ATOM
      1 C         141.8600  140.0757  167.3531 C.ar    1  UNL1        0.1721
      2 C         141.5327  139.0899  166.2710 C.ar    1  UNL1        0.0356
      3 C         140.4985  139.4261  165.2378 C.ar    1  UNL1       -0.0203
      4 C         139.7916  140.7481  165.2868 C.ar    1  UNL1       -0.0084
      5 C         140.1189  141.7339  166.3689 C.ar    1  UNL1        0.0368
      6 C         141.1531  141.3977  167.4021 C.ar    1  UNL1        0.1721
      7 C         138.7574  141.0844  164.2537 C.3     1  UNL1        0.0827
      8 N         138.4301  140.0986  163.1715 N.3     1  UNL1       -0.2687
      9 C         137.3959  140.4348  162.1384 C.3     1  UNL1        0.0899
     10 C         139.1370  138.7764  163.1225 C.3     1  UNL1        0.0771
     11 C         140.1712  138.4402  164.1557 C.3     1  UNL1        0.0435
     12 C         142.4715  139.2330  169.7334 C.3     1  UNL1        0.2526
     13 O         142.8942  139.7394  168.3863 O.3     1  UNL1       -0.4684
     14 O         141.4803  142.3836  168.4842 O.3     1  UNL1       -0.4684
     15 C         140.3858  143.1837  169.1259 C.3     1  UNL1        0.2526
     16 C         138.0505  142.4064  164.3026 C.3     1  UNL1        0.0543
     17 C         138.5021  143.5316  163.4194 C.3     1  UNL1        0.1344
     18 O         137.4891  144.4052  162.7407 O.3     1  UNL1       -0.3800
     19 H         137.9453  145.0781  162.2115 H       1  UNL1        0.2108
     20 C         139.9667  143.7830  163.2148 C.ar    1  UNL1        0.0043
     21 C         140.6934  144.7477  164.1043 C.ar    1  UNL1       -0.0011
     22 C         142.1580  144.9992  163.8997 C.ar    1  UNL1        0.0111
     23 C         142.8958  144.2859  162.8057 C.ar    1  UNL1        0.0577
     24 CL        144.3603  144.5373  162.6011 Cl      1  UNL1       -0.0822
     25 C         142.1690  143.3212  161.9162 C.ar    1  UNL1        0.0111
     26 C         140.7045  143.0698  162.1208 C.ar    1  UNL1       -0.0011
@<TRIPOS>BOND
     1    12    13    1
     2    13     1    1
     3     1     2   ar
     4     2     3   ar
     5     3     4   ar
     6     4     5   ar
     7     5     6   ar
     8     6    14    1
     9    14    15    1
    10     4     7    1
    11     7    16    1
    12    16    17    1
    13    17    18    1
    14    17    20    1
    15    20    21   ar
    16    21    22   ar
    17    22    23   ar
    18    23    24    1
    19    23    25   ar
    20    25    26   ar
    21     7     8    1
    22     8     9    1
    23     8    10    1
    24    10    11    1
    25     6     1   ar
    26    26    20   ar
    27    11     3    1
    28    18    19    1
