@<TRIPOS>MOLECULE
*****
 30 33 0 0 0
SMALL
GASTEIGER

@<TRIPOS>ATOM
      1 C         140.2130  137.9476  162.4483 C.ar    1  UNL1        0.1388
      2 C         139.7209  137.7202  163.8469 C.ar    1  UNL1        0.0400
      3 C         140.6730  137.8173  165.0020 C.ar    1  UNL1        0.0407
      4 C         142.1170  138.1420  164.7585 C.ar    1  UNL1        0.1479
      5 C         142.6091  138.3694  163.3598 C.ar    1  UNL1        0.0407
      6 C         141.6571  138.2723  162.2047 C.ar    1  UNL1        0.0400
      7 O         139.2610  137.8505  161.2931 O.3     1  UNL1       -0.4740
      8 C         137.8569  138.3591  161.4336 C.3     1  UNL1        0.2226
      9 C         137.5079  139.7384  160.9586 C.3     1  UNL1        0.1200
     10 C         138.3929  143.3041  163.5573 C.3     1  UNL1        0.0790
     11 C         137.9730  142.0065  164.1818 C.3     1  UNL1        0.0264
     12 C         137.6781  140.8180  163.3156 C.3     1  UNL1        0.0727
     13 N         137.8029  140.9270  161.8248 N.3     1  UNL1       -0.2695
     14 C         138.2228  142.2245  161.2002 C.3     1  UNL1        0.0727
     15 C         138.5177  143.4131  162.0664 C.3     1  UNL1        0.0264
     16 N         139.9250  145.3065  164.1842 N.am    1  UNL1       -0.3288
     17 C         138.6879  144.4927  164.4235 C.2     1  UNL1        0.2190
     18 O         137.7458  144.8673  165.5289 O.2     1  UNL1       -0.2753
     19 H         140.1186  146.0866  164.7527 H       1  UNL1        0.1449
     20 H         140.5433  145.0606  163.4586 H       1  UNL1        0.1449
     21 O         143.0690  138.2391  165.9135 O.3     1  UNL1       -0.4313
     22 C         142.8191  139.2317  167.0100 C.ar    1  UNL1        0.2642
     23 N         142.9365  138.9678  168.4819 N.ar    1  UNL1       -0.1859
     24 C         142.5978  140.2355  169.2087 C.ar    1  UNL1        0.1720
     25 N         142.5447  140.5713  170.6696 N.ar    1  UNL1       -0.2245
     26 C         142.1649  141.9546  171.1078 C.ar    1  UNL1        0.1006
     27 C         141.8382  143.0021  170.0851 C.ar    1  UNL1        0.0213
     28 C         141.8912  142.6663  168.6242 C.ar    1  UNL1        0.0113
     29 C         142.2711  141.2830  168.1860 C.ar    1  UNL1        0.0697
     30 S         142.4078  140.6626  166.8271 S.2     1  UNL1       -0.0267
@<TRIPOS>BOND
     1    16    17   am
     2    17    18    2
     3    17    10    1
     4    10    11    1
     5    11    12    1
     6    12    13    1
     7    13     9    1
     8     9     8    1
     9     8     7    1
    10     7     1    1
    11     1     2   ar
    12     2     3   ar
    13     3     4   ar
    14     4    21    1
    15    21    22    1
    16    22    23   ar
    17    23    24   ar
    18    24    25   ar
    19    25    26   ar
    20    26    27   ar
    21    27    28   ar
    22    28    29   ar
    23    29    30   ar
    24     4     5   ar
    25     5     6   ar
    26    13    14    1
    27    14    15    1
    28    15    10    1
    29     6     1   ar
    30    30    22   ar
    31    29    24   ar
    32    16    19    1
    33    16    20    1
@<TRIPOS>MOLECULE
*****
 30 33 0 0 0
SMALL
GASTEIGER

@<TRIPOS>ATOM
      1 C         140.9676  137.7577  162.3893 C.ar    1  UNL1        0.1388
      2 C         139.7375  138.6009  162.2288 C.ar    1  UNL1        0.0400
      3 C         138.9096  138.9557  163.4283 C.ar    1  UNL1        0.0407
      4 C         139.3119  138.4673  164.7883 C.ar    1  UNL1        0.1479
      5 C         140.5421  137.6241  164.9488 C.ar    1  UNL1        0.0407
      6 C         141.3699  137.2693  163.7493 C.ar    1  UNL1        0.0400
      7 O         141.7955  137.4029  161.1898 O.3     1  UNL1       -0.4740
      8 C         142.9513  138.2725  160.7924 C.3     1  UNL1        0.2226
      9 C         144.0601  138.5378  161.7670 C.3     1  UNL1        0.1200
     10 C         144.2208  142.4518  163.9816 C.3     1  UNL1        0.0790
     11 C         144.0225  141.1708  164.7362 C.3     1  UNL1        0.0264
     12 C         143.9690  139.8661  163.9980 C.3     1  UNL1        0.0727
     13 N         144.1137  139.8425  162.5052 N.3     1  UNL1       -0.2695
     14 C         144.3120  141.1236  161.7506 C.3     1  UNL1        0.0727
     15 C         144.3656  142.4282  162.4888 C.3     1  UNL1        0.0264
     16 N         143.7783  145.0107  164.0632 N.am    1  UNL1       -0.3288
     17 C         144.2744  143.7566  164.7198 C.2     1  UNL1        0.2190
     18 O         144.8241  143.8072  166.1145 O.2     1  UNL1       -0.2753
     19 H         143.8135  145.8670  164.5476 H       1  UNL1        0.1449
     20 H         143.4176  144.9774  163.1478 H       1  UNL1        0.1449
     21 O         138.4841  138.8220  165.9878 O.3     1  UNL1       -0.4313
     22 C         139.0542  139.7051  167.0580 C.ar    1  UNL1        0.2642
     23 N         138.8455  139.5475  168.5350 N.ar    1  UNL1       -0.1859
     24 C         139.5954  140.6457  169.2289 C.ar    1  UNL1        0.1720
     25 N         139.7531  140.9922  170.6798 N.ar    1  UNL1       -0.2245
     26 C         140.5828  142.1751  171.0825 C.ar    1  UNL1        0.1006
     27 C         141.2550  143.0115  170.0343 C.ar    1  UNL1        0.0213
     28 C         141.0974  142.6650  168.5834 C.ar    1  UNL1        0.0113
     29 C         140.2676  141.4821  168.1808 C.ar    1  UNL1        0.0697
     30 S         139.9331  140.9007  166.8391 S.2     1  UNL1       -0.0267
@<TRIPOS>BOND
     1    16    17   am
     2    17    18    2
     3    17    10    1
     4    10    11    1
     5    11    12    1
     6    12    13    1
     7    13     9    1
     8     9     8    1
     9     8     7    1
    10     7     1    1
    11     1     2   ar
    12     2     3   ar
    13     3     4   ar
    14     4    21    1
    15    21    22    1
    16    22    23   ar
    17    23    24   ar
    18    24    25   ar
    19    25    26   ar
    20    26    27   ar
    21    27    28   ar
    22    28    29   ar
    23    29    30   ar
    24     4     5   ar
    25     5     6   ar
    26    13    14    1
    27    14    15    1
    28    15    10    1
    29     6     1   ar
    30    30    22   ar
    31    29    24   ar
    32    16    19    1
    33    16    20    1
@<TRIPOS>MOLECULE
*****
 30 33 0 0 0
SMALL
GASTEIGER

@<TRIPOS>ATOM
      1 C         138.4686  138.8302  162.7661 C.ar    1  UNL1        0.1388
      2 C         138.0839  140.1220  163.4243 C.ar    1  UNL1        0.0400
      3 C         138.0854  140.2312  164.9203 C.ar    1  UNL1        0.0407
      4 C         138.4716  139.0484  165.7582 C.ar    1  UNL1        0.1479
      5 C         138.8563  137.7566  165.1000 C.ar    1  UNL1        0.0407
      6 C         138.8548  137.6475  163.6040 C.ar    1  UNL1        0.0400
      7 O         138.4671  138.7211  161.2700 O.3     1  UNL1       -0.4740
      8 C         139.7480  138.4553  160.5362 C.3     1  UNL1        0.2226
      9 C         140.7170  139.5733  160.2898 C.3     1  UNL1        0.1200
     10 C         139.8853  143.6765  161.9397 C.3     1  UNL1        0.0790
     11 C         140.9246  142.8063  162.5821 C.3     1  UNL1        0.0264
     12 C         141.2018  141.4387  162.0321 C.3     1  UNL1        0.0727
     13 N         140.4398  140.9411  160.8397 N.3     1  UNL1       -0.2695
     14 C         139.4004  141.8112  160.1974 C.3     1  UNL1        0.0727
     15 C         139.1232  143.1789  160.7474 C.3     1  UNL1        0.0264
     16 N         139.7024  145.2922  163.9661 N.am    1  UNL1       -0.3288
     17 C         139.6080  145.0442  162.4897 C.2     1  UNL1        0.2190
     18 O         139.2364  146.1639  161.5634 O.2     1  UNL1       -0.2753
     19 H         139.5205  146.1899  164.3270 H       1  UNL1        0.1449
     20 H         139.9464  144.5573  164.5741 H       1  UNL1        0.1449
     21 O         138.4731  139.1575  167.2542 O.3     1  UNL1       -0.4313
     22 C         139.5335  139.9614  167.9465 C.ar    1  UNL1        0.2642
     23 N         139.4166  140.5938  169.3016 N.ar    1  UNL1       -0.1859
     24 C         140.7079  141.2973  169.5979 C.ar    1  UNL1        0.1720
     25 N         141.1687  142.0923  170.7834 N.ar    1  UNL1       -0.2245
     26 C         142.5445  142.6895  170.7970 C.ar    1  UNL1        0.1006
     27 C         143.4596  142.4918  169.6250 C.ar    1  UNL1        0.0213
     28 C         142.9988  141.6968  168.4395 C.ar    1  UNL1        0.0113
     29 C         141.6229  141.0995  168.4259 C.ar    1  UNL1        0.0697
     30 S         140.8971  140.2739  167.4053 S.2     1  UNL1       -0.0267
@<TRIPOS>BOND
     1    16    17   am
     2    17    18    2
     3    17    10    1
     4    10    11    1
     5    11    12    1
     6    12    13    1
     7    13     9    1
     8     9     8    1
     9     8     7    1
    10     7     1    1
    11     1     2   ar
    12     2     3   ar
    13     3     4   ar
    14     4    21    1
    15    21    22    1
    16    22    23   ar
    17    23    24   ar
    18    24    25   ar
    19    25    26   ar
    20    26    27   ar
    21    27    28   ar
    22    28    29   ar
    23    29    30   ar
    24     4     5   ar
    25     5     6   ar
    26    13    14    1
    27    14    15    1
    28    15    10    1
    29     6     1   ar
    30    30    22   ar
    31    29    24   ar
    32    16    19    1
    33    16    20    1
@<TRIPOS>MOLECULE
*****
 30 33 0 0 0
SMALL
GASTEIGER

@<TRIPOS>ATOM
      1 C         141.7957  137.8847  162.4066 C.ar    1  UNL1        0.1388
      2 C         143.0251  138.7248  162.5873 C.ar    1  UNL1        0.0400
      3 C         143.5867  138.9466  163.9605 C.ar    1  UNL1        0.0407
      4 C         142.9189  138.3282  165.1528 C.ar    1  UNL1        0.1479
      5 C         141.6894  137.4881  164.9720 C.ar    1  UNL1        0.0407
      6 C         141.1278  137.2664  163.5989 C.ar    1  UNL1        0.0400
      7 O         141.2340  137.6629  161.0334 O.3     1  UNL1       -0.4740
      8 C         140.4218  138.7371  160.3728 C.3     1  UNL1        0.2226
      9 C         139.3967  139.4951  161.1630 C.3     1  UNL1        0.1200
     10 C         139.9005  143.9139  161.8490 C.3     1  UNL1        0.0790
     11 C         138.5306  143.3034  161.8680 C.3     1  UNL1        0.0264
     12 C         138.3626  141.8305  161.6393 C.3     1  UNL1        0.0727
     13 N         139.5647  140.9681  161.3917 N.3     1  UNL1       -0.2695
     14 C         140.9346  141.5786  161.3727 C.3     1  UNL1        0.0727
     15 C         141.1026  143.0515  161.6014 C.3     1  UNL1        0.0264
     16 N         141.1628  145.8867  162.9737 N.am    1  UNL1       -0.3288
     17 C         140.0685  145.3868  162.0777 C.2     1  UNL1        0.2190
     18 O         139.1423  146.3599  161.4104 O.2     1  UNL1       -0.2753
     19 H         141.2731  146.8534  163.1238 H       1  UNL1        0.1449
     20 H         141.7707  145.2481  163.4116 H       1  UNL1        0.1449
     21 O         143.4804  138.5500  166.5259 O.3     1  UNL1       -0.4313
     22 C         142.7901  139.4820  167.4770 C.ar    1  UNL1        0.2642
     23 N         142.7351  139.3376  168.9690 N.ar    1  UNL1       -0.1859
     24 C         141.9445  140.4885  169.5173 C.ar    1  UNL1        0.1720
     25 N         141.5634  140.8678  170.9176 N.ar    1  UNL1       -0.2245
     26 C         140.7488  142.1028  171.1647 C.ar    1  UNL1        0.1006
     27 C         140.3152  142.9584  170.0115 C.ar    1  UNL1        0.0213
     28 C         140.6963  142.5791  168.6112 C.ar    1  UNL1        0.0113
     29 C         141.5109  141.3441  168.3641 C.ar    1  UNL1        0.0697
     30 S         142.0335  140.7221  167.1032 S.2     1  UNL1       -0.0267
@<TRIPOS>BOND
     1    16    17   am
     2    17    18    2
     3    17    10    1
     4    10    11    1
     5    11    12    1
     6    12    13    1
     7    13     9    1
     8     9     8    1
     9     8     7    1
    10     7     1    1
    11     1     2   ar
    12     2     3   ar
    13     3     4   ar
    14     4    21    1
    15    21    22    1
    16    22    23   ar
    17    23    24   ar
    18    24    25   ar
    19    25    26   ar
    20    26    27   ar
    21    27    28   ar
    22    28    29   ar
    23    29    30   ar
    24     4     5   ar
    25     5     6   ar
    26    13    14    1
    27    14    15    1
    28    15    10    1
    29     6     1   ar
    30    30    22   ar
    31    29    24   ar
    32    16    19    1
    33    16    20    1
@<TRIPOS>MOLECULE
*****
 30 33 0 0 0
SMALL
GASTEIGER

@<TRIPOS>ATOM
      1 C         139.5090  137.6991  163.1916 C.ar    1  UNL1        0.1388
      2 C         140.9989  137.6199  163.0368 C.ar    1  UNL1        0.0400
      3 C         141.6446  138.0623  161.7572 C.ar    1  UNL1        0.0407
      4 C         140.8003  138.5840  160.6324 C.ar    1  UNL1        0.1479
      5 C         139.3104  138.6632  160.7873 C.ar    1  UNL1        0.0407
      6 C         138.6648  138.2207  162.0669 C.ar    1  UNL1        0.0400
      7 O         138.8633  137.2566  164.4713 O.3     1  UNL1       -0.4740
      8 C         138.7617  138.2065  165.6277 C.3     1  UNL1        0.2226
      9 C         139.2972  139.6020  165.5012 C.3     1  UNL1        0.1200
     10 C         140.1575  142.0250  169.1942 C.3     1  UNL1        0.0790
     11 C         139.5382  140.6645  169.3173 C.3     1  UNL1        0.0264
     12 C         139.2514  139.8568  168.0864 C.3     1  UNL1        0.0727
     13 N         139.5840  140.4097  166.7322 N.3     1  UNL1       -0.2695
     14 C         140.2033  141.7703  166.6091 C.3     1  UNL1        0.0727
     15 C         140.4900  142.5780  167.8401 C.3     1  UNL1        0.0264
     16 N         140.6684  144.3120  170.3163 N.am    1  UNL1       -0.3288
     17 C         140.4443  142.8328  170.4252 C.2     1  UNL1        0.2190
     18 O         140.5070  142.1614  171.7651 O.2     1  UNL1       -0.2753
     19 H         140.8566  144.8421  171.1242 H       1  UNL1        0.1449
     20 H         140.6272  144.7526  169.4369 H       1  UNL1        0.1449
     21 O         141.4459  139.0264  159.3528 O.3     1  UNL1       -0.4313
     22 C         141.6681  138.0402  158.2447 C.ar    1  UNL1        0.2642
     23 N         142.9342  137.2799  157.9818 N.ar    1  UNL1       -0.1859
     24 C         142.7118  136.4108  156.7796 C.ar    1  UNL1        0.1720
     25 N         143.6060  135.4452  156.0600 N.ar    1  UNL1       -0.2245
     26 C         143.0967  134.7026  154.8603 C.ar    1  UNL1        0.1006
     27 C         141.6933  134.9258  154.3802 C.ar    1  UNL1        0.0213
     28 C         140.7991  135.8915  155.0998 C.ar    1  UNL1        0.0113
     29 C         141.3084  136.6340  156.2995 C.ar    1  UNL1        0.0697
     30 S         140.6634  137.6410  157.2050 S.2     1  UNL1       -0.0267
@<TRIPOS>BOND
     1    16    17   am
     2    17    18    2
     3    17    10    1
     4    10    11    1
     5    11    12    1
     6    12    13    1
     7    13     9    1
     8     9     8    1
     9     8     7    1
    10     7     1    1
    11     1     2   ar
    12     2     3   ar
    13     3     4   ar
    14     4    21    1
    15    21    22    1
    16    22    23   ar
    17    23    24   ar
    18    24    25   ar
    19    25    26   ar
    20    26    27   ar
    21    27    28   ar
    22    28    29   ar
    23    29    30   ar
    24     4     5   ar
    25     5     6   ar
    26    13    14    1
    27    14    15    1
    28    15    10    1
    29     6     1   ar
    30    30    22   ar
    31    29    24   ar
    32    16    19    1
    33    16    20    1
@<TRIPOS>MOLECULE
*****
 30 33 0 0 0
SMALL
GASTEIGER

@<TRIPOS>ATOM
      1 C         142.7539  140.5898  168.0401 C.ar    1  UNL1        0.1388
      2 C         142.8473  139.7469  166.8029 C.ar    1  UNL1        0.0400
      3 C         143.3103  140.3568  165.5130 C.ar    1  UNL1        0.0407
      4 C         143.6799  141.8096  165.4604 C.ar    1  UNL1        0.1479
      5 C         143.5865  142.6525  166.6978 C.ar    1  UNL1        0.0407
      6 C         143.1235  142.0426  167.9876 C.ar    1  UNL1        0.0400
      7 O         142.2909  139.9799  169.3300 O.3     1  UNL1       -0.4740
      8 C         140.8240  139.8271  169.6034 C.3     1  UNL1        0.2226
      9 C         139.8390  140.7496  168.9487 C.3     1  UNL1        0.1200
     10 C         138.4965  139.9759  164.7238 C.3     1  UNL1        0.0790
     11 C         138.2314  138.9581  165.7933 C.3     1  UNL1        0.0264
     12 C         138.6789  139.2160  167.2015 C.3     1  UNL1        0.0727
     13 N         139.3915  140.4917  167.5403 N.3     1  UNL1       -0.2695
     14 C         139.6567  141.5095  166.4709 C.3     1  UNL1        0.0727
     15 C         139.2092  141.2516  165.0626 C.3     1  UNL1        0.0264
     16 N         137.3130  140.7816  162.5558 N.am    1  UNL1       -0.3288
     17 C         138.0490  139.7180  163.3155 C.2     1  UNL1        0.2190
     18 O         138.3376  138.3966  162.6669 O.2     1  UNL1       -0.2753
     19 H         137.0193  140.6123  161.6315 H       1  UNL1        0.1449
     20 H         137.1237  141.6488  162.9815 H       1  UNL1        0.1449
     21 O         144.1428  142.4195  164.1707 O.3     1  UNL1       -0.4313
     22 C         143.1935  143.2341  163.3428 C.ar    1  UNL1        0.2642
     23 N         143.2679  143.4357  161.8583 N.ar    1  UNL1       -0.1859
     24 C         142.1235  144.3163  161.4522 C.ar    1  UNL1        0.1720
     25 N         141.6922  144.8504  160.1185 N.ar    1  UNL1       -0.2245
     26 C         140.4792  145.7271  160.0184 C.ar    1  UNL1        0.1006
     27 C         139.6976  146.0698  161.2520 C.ar    1  UNL1        0.0213
     28 C         140.1289  145.5357  162.5856 C.ar    1  UNL1        0.0113
     29 C         141.3418  144.6589  162.6857 C.ar    1  UNL1        0.0697
     30 S         142.0032  143.9901  163.8542 S.2     1  UNL1       -0.0267
@<TRIPOS>BOND
     1    16    17   am
     2    17    18    2
     3    17    10    1
     4    10    11    1
     5    11    12    1
     6    12    13    1
     7    13     9    1
     8     9     8    1
     9     8     7    1
    10     7     1    1
    11     1     2   ar
    12     2     3   ar
    13     3     4   ar
    14     4    21    1
    15    21    22    1
    16    22    23   ar
    17    23    24   ar
    18    24    25   ar
    19    25    26   ar
    20    26    27   ar
    21    27    28   ar
    22    28    29   ar
    23    29    30   ar
    24     4     5   ar
    25     5     6   ar
    26    13    14    1
    27    14    15    1
    28    15    10    1
    29     6     1   ar
    30    30    22   ar
    31    29    24   ar
    32    16    19    1
    33    16    20    1
@<TRIPOS>MOLECULE
*****
 30 33 0 0 0
SMALL
GASTEIGER

@<TRIPOS>ATOM
      1 C         138.8520  143.2729  161.8527 C.ar    1  UNL1        0.1388
      2 C         139.6187  141.9837  161.8688 C.ar    1  UNL1        0.0400
      3 C         139.4702  141.0372  163.0230 C.ar    1  UNL1        0.0407
      4 C         138.5551  141.3799  164.1610 C.ar    1  UNL1        0.1479
      5 C         137.7884  142.6691  164.1448 C.ar    1  UNL1        0.0407
      6 C         137.9369  143.6155  162.9907 C.ar    1  UNL1        0.0400
      7 O         139.0004  144.2194  160.6984 O.3     1  UNL1       -0.4740
      8 C         139.9576  145.3705  160.7908 C.3     1  UNL1        0.2226
      9 C         141.3587  145.2241  160.2756 C.3     1  UNL1        0.1200
     10 C         144.1114  142.1569  162.0824 C.3     1  UNL1        0.0790
     11 C         143.4828  143.2052  162.9518 C.3     1  UNL1        0.0264
     12 C         142.5653  144.2275  162.3495 C.3     1  UNL1        0.0727
     13 N         142.2763  144.2016  160.8778 N.3     1  UNL1       -0.2695
     14 C         142.9049  143.1533  160.0084 C.3     1  UNL1        0.0727
     15 C         143.8225  142.1310  160.6107 C.3     1  UNL1        0.0264
     16 N         144.7094  139.6741  162.5606 N.am    1  UNL1       -0.3288
     17 C         145.0290  141.1344  162.6847 C.2     1  UNL1        0.2190
     18 O         146.2662  141.5723  163.4110 O.2     1  UNL1       -0.2753
     19 H         145.3116  139.0031  162.9559 H       1  UNL1        0.1449
     20 H         143.8973  139.3868  162.0839 H       1  UNL1        0.1449
     21 O         138.4066  140.4335  165.3152 O.3     1  UNL1       -0.4313
     22 C         139.3963  140.4636  166.4420 C.ar    1  UNL1        0.2642
     23 N         139.2516  139.7652  167.7616 N.ar    1  UNL1       -0.1859
     24 C         140.4704  140.0674  168.5821 C.ar    1  UNL1        0.1720
     25 N         140.8784  139.6509  169.9641 N.ar    1  UNL1       -0.2245
     26 C         142.1846  140.1196  170.5336 C.ar    1  UNL1        0.1006
     27 C         143.0826  141.0047  169.7212 C.ar    1  UNL1        0.0213
     28 C         142.6745  141.4212  168.3392 C.ar    1  UNL1        0.0113
     29 C         141.3684  140.9525  167.7696 C.ar    1  UNL1        0.0697
     30 S         140.7046  141.1974  166.4470 S.2     1  UNL1       -0.0267
@<TRIPOS>BOND
     1    16    17   am
     2    17    18    2
     3    17    10    1
     4    10    11    1
     5    11    12    1
     6    12    13    1
     7    13     9    1
     8     9     8    1
     9     8     7    1
    10     7     1    1
    11     1     2   ar
    12     2     3   ar
    13     3     4   ar
    14     4    21    1
    15    21    22    1
    16    22    23   ar
    17    23    24   ar
    18    24    25   ar
    19    25    26   ar
    20    26    27   ar
    21    27    28   ar
    22    28    29   ar
    23    29    30   ar
    24     4     5   ar
    25     5     6   ar
    26    13    14    1
    27    14    15    1
    28    15    10    1
    29     6     1   ar
    30    30    22   ar
    31    29    24   ar
    32    16    19    1
    33    16    20    1
@<TRIPOS>MOLECULE
*****
 30 33 0 0 0
SMALL
GASTEIGER

@<TRIPOS>ATOM
      1 C         141.4534  137.7961  162.3225 C.ar    1  UNL1        0.1388
      2 C         142.0775  137.8693  163.6845 C.ar    1  UNL1        0.0400
      3 C         141.2155  138.0780  164.8943 C.ar    1  UNL1        0.0407
      4 C         139.7294  138.2136  164.7419 C.ar    1  UNL1        0.1479
      5 C         139.1054  138.1405  163.3798 C.ar    1  UNL1        0.0407
      6 C         139.9674  137.9318  162.1701 C.ar    1  UNL1        0.0400
      7 O         142.3155  137.5874  161.1127 O.3     1  UNL1       -0.4740
      8 C         143.5849  138.3702  160.9522 C.3     1  UNL1        0.2226
      9 C         143.5445  139.7548  160.3767 C.3     1  UNL1        0.1200
     10 C         141.8995  143.1588  162.8174 C.3     1  UNL1        0.0790
     11 C         143.3664  142.8480  162.8566 C.3     1  UNL1        0.0264
     12 C         143.9147  141.7134  162.0431 C.3     1  UNL1        0.0727
     13 N         142.9961  140.8895  161.1903 N.3     1  UNL1       -0.2695
     14 C         141.5292  141.2002  161.1510 C.3     1  UNL1        0.0727
     15 C         140.9809  142.3348  161.9646 C.3     1  UNL1        0.0264
     16 N         141.6858  145.7091  163.2649 N.am    1  UNL1       -0.3288
     17 C         141.3511  144.2935  163.6309 C.2     1  UNL1        0.2190
     18 O         140.4681  144.0125  164.8105 O.2     1  UNL1       -0.2753
     19 H         141.3259  146.4538  163.7989 H       1  UNL1        0.1449
     20 H         142.2654  145.8935  162.4907 H       1  UNL1        0.1449
     21 O         138.8674  138.4223  165.9515 O.3     1  UNL1       -0.4313
     22 C         139.2065  139.5011  166.9371 C.ar    1  UNL1        0.2642
     23 N         138.9344  139.4654  168.4118 N.ar    1  UNL1       -0.1859
     24 C         139.4370  140.7471  169.0071 C.ar    1  UNL1        0.1720
     25 N         139.4393  141.2674  170.4140 N.ar    1  UNL1       -0.2245
     26 C         140.0244  142.6155  170.7141 C.ar    1  UNL1        0.1006
     27 C         140.6072  143.4434  169.6073 C.ar    1  UNL1        0.0213
     28 C         140.6049  142.9232  168.2005 C.ar    1  UNL1        0.0113
     29 C         140.0198  141.5751  167.9004 C.ar    1  UNL1        0.0697
     30 S         139.8774  140.8049  166.6211 S.2     1  UNL1       -0.0267
@<TRIPOS>BOND
     1    16    17   am
     2    17    18    2
     3    17    10    1
     4    10    11    1
     5    11    12    1
     6    12    13    1
     7    13     9    1
     8     9     8    1
     9     8     7    1
    10     7     1    1
    11     1     2   ar
    12     2     3   ar
    13     3     4   ar
    14     4    21    1
    15    21    22    1
    16    22    23   ar
    17    23    24   ar
    18    24    25   ar
    19    25    26   ar
    20    26    27   ar
    21    27    28   ar
    22    28    29   ar
    23    29    30   ar
    24     4     5   ar
    25     5     6   ar
    26    13    14    1
    27    14    15    1
    28    15    10    1
    29     6     1   ar
    30    30    22   ar
    31    29    24   ar
    32    16    19    1
    33    16    20    1
@<TRIPOS>MOLECULE
*****
 30 33 0 0 0
SMALL
GASTEIGER

@<TRIPOS>ATOM
      1 C         140.9392  139.7043  167.1797 C.ar    1  UNL1        0.1388
      2 C         141.6720  139.0126  166.0686 C.ar    1  UNL1        0.0400
      3 C         140.9050  138.3459  164.9652 C.ar    1  UNL1        0.0407
      4 C         139.4052  138.3710  164.9730 C.ar    1  UNL1        0.1479
      5 C         138.6724  139.0627  166.0841 C.ar    1  UNL1        0.0407
      6 C         139.4394  139.7293  167.1874 C.ar    1  UNL1        0.0400
      7 O         141.7061  140.3710  168.2831 O.3     1  UNL1       -0.4740
      8 C         142.1470  141.7970  168.1346 C.3     1  UNL1        0.2226
      9 C         142.7694  142.2597  166.8507 C.3     1  UNL1        0.1200
     10 C         140.2778  144.4314  163.7969 C.3     1  UNL1        0.0790
     11 C         141.7487  144.2453  163.5696 C.3     1  UNL1        0.0264
     12 C         142.5792  143.5214  164.5875 C.3     1  UNL1        0.0727
     13 N         141.9388  142.9837  165.8328 N.3     1  UNL1       -0.2695
     14 C         140.4679  143.1698  166.0601 C.3     1  UNL1        0.0727
     15 C         139.6374  143.8937  165.0422 C.3     1  UNL1        0.0264
     16 N         139.9150  146.4690  162.2263 N.am    1  UNL1       -0.3288
     17 C         139.4472  145.1554  162.7790 C.2     1  UNL1        0.2190
     18 O         138.1488  144.5656  162.3138 O.2     1  UNL1       -0.2753
     19 H         139.3699  146.9441  161.5582 H       1  UNL1        0.1449
     20 H         140.7672  146.8560  162.5316 H       1  UNL1        0.1449
     21 O         138.6383  137.7043  163.8697 O.3     1  UNL1       -0.4313
     22 C         138.7691  138.1996  162.4598 C.ar    1  UNL1        0.2642
     23 N         139.7982  137.7577  161.4620 N.ar    1  UNL1       -0.1859
     24 C         139.5589  138.5087  160.1858 C.ar    1  UNL1        0.1720
     25 N         140.2606  138.4846  158.8603 N.ar    1  UNL1       -0.2245
     26 C         139.7854  139.3665  157.7439 C.ar    1  UNL1        0.1006
     27 C         138.6084  140.2725  157.9530 C.ar    1  UNL1        0.0213
     28 C         137.9066  140.2967  159.2785 C.ar    1  UNL1        0.0113
     29 C         138.3818  139.4147  160.3948 C.ar    1  UNL1        0.0697
     30 S         137.8937  139.2237  161.8003 S.2     1  UNL1       -0.0267
@<TRIPOS>BOND
     1    16    17   am
     2    17    18    2
     3    17    10    1
     4    10    11    1
     5    11    12    1
     6    12    13    1
     7    13     9    1
     8     9     8    1
     9     8     7    1
    10     7     1    1
    11     1     2   ar
    12     2     3   ar
    13     3     4   ar
    14     4    21    1
    15    21    22    1
    16    22    23   ar
    17    23    24   ar
    18    24    25   ar
    19    25    26   ar
    20    26    27   ar
    21    27    28   ar
    22    28    29   ar
    23    29    30   ar
    24     4     5   ar
    25     5     6   ar
    26    13    14    1
    27    14    15    1
    28    15    10    1
    29     6     1   ar
    30    30    22   ar
    31    29    24   ar
    32    16    19    1
    33    16    20    1
