@<TRIPOS>MOLECULE
*****
 37 41 0 0 0
SMALL
GASTEIGER

@<TRIPOS>ATOM
      1 C         139.9629  139.5202  162.8762 C.ar    1  UNL1        0.0878
      2 C         138.8033  138.7492  163.4338 C.ar    1  UNL1        0.1543
      3 F         137.9181  137.9583  162.5168 F       1  UNL1       -0.2028
      4 C         138.5289  138.7693  164.9083 C.ar    1  UNL1        0.0356
      5 C         139.4141  139.5602  165.8252 C.ar    1  UNL1        0.0580
      6 C         139.1397  139.5802  167.2998 C.ar    1  UNL1        0.1996
      7 O         137.9801  138.8092  167.8574 O.2     1  UNL1       -0.2864
      8 C         140.0249  140.3712  168.2168 C.ar    1  UNL1        0.0701
      9 C         141.1845  141.1422  167.6591 C.ar    1  UNL1        0.0801
     10 N         141.4589  141.1222  166.1846 N.ar    1  UNL1       -0.3270
     11 C         140.5737  140.3312  165.2676 C.ar    1  UNL1        0.0750
     12 C         140.8481  140.3112  163.7931 C.ar    1  UNL1        0.0890
     13 CL        142.0077  141.0822  163.2355 Cl      1  UNL1       -0.0794
     14 C         140.9895  138.7995  159.2030 C.3     1  UNL1        0.0930
     15 C         140.3298  140.1393  159.0620 C.3     1  UNL1        0.0427
     16 C         139.8649  140.5724  160.4208 C.3     1  UNL1        0.0927
     17 N         140.2373  139.5002  161.4016 N.pl3   1  UNL1       -0.3033
     18 C         140.9323  138.4046  160.6489 C.3     1  UNL1        0.1104
     19 C         140.7346  137.4680  156.9866 C.2     1  UNL1        0.2474
     20 O         139.2601  137.7438  156.9905 O.2     1  UNL1       -0.2729
     21 N         141.5993  137.9959  158.0929 N.am    1  UNL1       -0.3026
     22 H         142.5670  137.8148  158.0904 H       1  UNL1        0.1495
     23 C         141.3444  136.6643  155.8766 C.3     1  UNL1        0.2119
     24 N         144.4212  132.9780  158.0731 N.pl3   1  UNL1       -0.3412
     25 C         143.4204  133.6576  157.1863 C.ar    1  UNL1        0.1467
     26 C         142.6285  133.0078  156.0907 C.ar    1  UNL1        0.0558
     27 C         141.7544  134.0550  155.4667 C.ar    1  UNL1        0.0986
     28 N         142.0061  135.3521  156.1767 N.ar    1  UNL1       -0.2389
     29 N         143.0358  135.1065  157.2395 N.ar    1  UNL1       -0.1542
     30 H         144.6065  132.0177  157.9605 H       1  UNL1        0.1438
     31 H         144.8927  133.4923  158.7677 H       1  UNL1        0.1438
     32 C         139.7505  140.3912  169.6913 C.2     1  UNL1        0.0774
     33 O         140.3763  139.3616  170.5847 O.co2   1  UNL1       -0.5444
     34 O         138.8502  141.4409  170.2725 O.co2   1  UNL1       -0.5444
     35 C         142.6184  141.8932  165.6270 C.3     1  UNL1        0.0857
     36 C         144.0347  141.9342  165.1346 C.3     1  UNL1        0.0245
     37 C         143.2107  143.1874  165.1536 C.3     1  UNL1        0.0245
@<TRIPOS>UNITY_ATOM_ATTR
33 1
charge -1
@<TRIPOS>BOND
     1    24    25    1
     2    25    26   ar
     3    26    27   ar
     4    27    28   ar
     5    28    23    1
     6    23    19    1
     7    19    20    2
     8    19    21   am
     9    21    14    1
    10    14    15    1
    11    15    16    1
    12    16    17    1
    13    17     1    1
    14     1     2   ar
    15     2     3    1
    16     2     4   ar
    17     4     5   ar
    18     5     6   ar
    19     6     7    2
    20     6     8   ar
    21     8    32    1
    22    32    33   ar
    23    32    34   ar
    24     8     9   ar
    25     9    10   ar
    26    10    35    1
    27    35    36    1
    28    36    37    1
    29    10    11   ar
    30    11    12   ar
    31    12    13    1
    32    17    18    1
    33    28    29   ar
    34    29    25   ar
    35    18    14    1
    36    12     1   ar
    37    11     5   ar
    38    37    35    1
    39    24    30    1
    40    24    31    1
    41    21    22    1
@<TRIPOS>MOLECULE
*****
 37 41 0 0 0
SMALL
GASTEIGER

@<TRIPOS>ATOM
      1 C         139.6735  142.6454  164.1610 C.ar    1  UNL1        0.0878
      2 C         138.9973  143.6790  165.0122 C.ar    1  UNL1        0.1543
      3 F         137.9670  144.5884  164.4111 F       1  UNL1       -0.2028
      4 C         139.3514  143.8030  166.4644 C.ar    1  UNL1        0.0356
      5 C         140.3817  142.8935  167.0655 C.ar    1  UNL1        0.0580
      6 C         140.7358  143.0176  168.5179 C.ar    1  UNL1        0.1996
      7 O         140.0596  144.0511  169.3691 O.2     1  UNL1       -0.2864
      8 C         141.7661  142.1081  169.1190 C.ar    1  UNL1        0.0701
      9 C         142.4423  141.0746  168.2677 C.ar    1  UNL1        0.0801
     10 N         142.0882  140.9505  166.8154 N.ar    1  UNL1       -0.3270
     11 C         141.0579  141.8600  166.2144 C.ar    1  UNL1        0.0750
     12 C         140.7038  141.7360  164.7621 C.ar    1  UNL1        0.0890
     13 CL        141.3800  140.7024  163.9108 Cl      1  UNL1       -0.0794
     14 C         139.1750  142.9466  160.3234 C.3     1  UNL1        0.0930
     15 C         138.3741  141.7144  160.6240 C.3     1  UNL1        0.0427
     16 C         138.4634  141.4516  162.0981 C.3     1  UNL1        0.0927
     17 N         139.3194  142.5214  162.7086 N.pl3   1  UNL1       -0.3033
     18 C         139.7592  143.4454  161.6118 C.3     1  UNL1        0.1104
     19 C         140.5355  143.1879  158.1232 C.2     1  UNL1        0.2474
     20 O         141.5274  142.1814  158.6263 O.2     1  UNL1       -0.2729
     21 N         139.3593  143.5705  158.9719 N.am    1  UNL1       -0.3026
     22 H         138.7082  144.2312  158.6418 H       1  UNL1        0.1495
     23 C         140.7198  143.8118  156.7717 C.3     1  UNL1        0.2119
     24 N         138.6636  148.6720  156.9478 N.pl3   1  UNL1       -0.3412
     25 C         139.0154  147.2877  156.4900 C.ar    1  UNL1        0.1467
     26 C         138.5690  146.6416  155.2121 C.ar    1  UNL1        0.0558
     27 C         139.1531  145.2609  155.1620 C.ar    1  UNL1        0.0986
     28 N         139.9605  145.0537  156.4090 N.ar    1  UNL1       -0.2389
     29 N         139.8754  146.3063  157.2298 N.ar    1  UNL1       -0.1542
     30 H         138.0892  149.2441  156.3892 H       1  UNL1        0.1438
     31 H         139.0070  149.0086  157.8069 H       1  UNL1        0.1438
     32 C         142.1202  142.2321  170.5713 C.2     1  UNL1        0.0774
     33 O         142.9025  143.4175  171.0540 O.co2   1  UNL1       -0.5444
     34 O         141.6921  141.1707  171.5410 O.co2   1  UNL1       -0.5444
     35 C         142.7644  139.9170  165.9643 C.3     1  UNL1        0.0857
     36 C         143.8600  139.5297  165.0158 C.3     1  UNL1        0.0245
     37 C         142.8401  138.5143  165.4384 C.3     1  UNL1        0.0245
@<TRIPOS>UNITY_ATOM_ATTR
33 1
charge -1
@<TRIPOS>BOND
     1    24    25    1
     2    25    26   ar
     3    26    27   ar
     4    27    28   ar
     5    28    23    1
     6    23    19    1
     7    19    20    2
     8    19    21   am
     9    21    14    1
    10    14    15    1
    11    15    16    1
    12    16    17    1
    13    17     1    1
    14     1     2   ar
    15     2     3    1
    16     2     4   ar
    17     4     5   ar
    18     5     6   ar
    19     6     7    2
    20     6     8   ar
    21     8    32    1
    22    32    33   ar
    23    32    34   ar
    24     8     9   ar
    25     9    10   ar
    26    10    35    1
    27    35    36    1
    28    36    37    1
    29    10    11   ar
    30    11    12   ar
    31    12    13    1
    32    17    18    1
    33    28    29   ar
    34    29    25   ar
    35    18    14    1
    36    12     1   ar
    37    11     5   ar
    38    37    35    1
    39    24    30    1
    40    24    31    1
    41    21    22    1
@<TRIPOS>MOLECULE
*****
 37 41 0 0 0
SMALL
GASTEIGER

@<TRIPOS>ATOM
      1 C         143.1536  140.4713  164.0505 C.ar    1  UNL1        0.0878
      2 C         143.9625  139.5267  164.8891 C.ar    1  UNL1        0.1543
      3 F         145.1272  138.7984  164.2868 F       1  UNL1       -0.2028
      4 C         143.6067  139.3106  166.3302 C.ar    1  UNL1        0.0356
      5 C         142.4419  140.0389  166.9325 C.ar    1  UNL1        0.0580
      6 C         142.0861  139.8227  168.3737 C.ar    1  UNL1        0.1996
      7 O         142.8951  138.8781  169.2123 O.2     1  UNL1       -0.2864
      8 C         140.9214  140.5511  168.9760 C.ar    1  UNL1        0.0701
      9 C         140.1125  141.4957  168.1373 C.ar    1  UNL1        0.0801
     10 N         140.4683  141.7119  166.6963 N.ar    1  UNL1       -0.3270
     11 C         141.6330  140.9835  166.0939 C.ar    1  UNL1        0.0750
     12 C         141.9888  141.1997  164.6529 C.ar    1  UNL1        0.0890
     13 CL        141.1799  142.1443  163.8141 Cl      1  UNL1       -0.0794
     14 C         143.8688  140.3104  160.2389 C.3     1  UNL1        0.0930
     15 C         144.2449  141.7300  160.5447 C.3     1  UNL1        0.0427
     16 C         144.0228  141.9630  162.0098 C.3     1  UNL1        0.0927
     17 N         143.5094  140.6875  162.6094 N.pl3   1  UNL1       -0.3033
     18 C         143.4142  139.6662  161.5149 C.3     1  UNL1        0.1104
     19 C         142.6720  139.3400  158.1470 C.2     1  UNL1        0.2474
     20 O         141.3418  139.6884  158.7464 O.2     1  UNL1       -0.2729
     21 N         143.9355  139.6510  158.8933 N.am    1  UNL1       -0.3026
     22 H         144.8086  139.4223  158.4999 H       1  UNL1        0.1495
     23 C         142.7388  138.6805  156.8014 C.3     1  UNL1        0.2119
     24 N         143.3801  133.5705  157.9661 N.pl3   1  UNL1       -0.3412
     25 C         143.3871  134.8778  157.2307 C.ar    1  UNL1        0.1467
     26 C         143.8857  135.1009  155.8338 C.ar    1  UNL1        0.0558
     27 C         143.7035  136.5526  155.5029 C.ar    1  UNL1        0.0986
     28 N         143.0923  137.2266  156.6954 N.ar    1  UNL1       -0.2389
     29 N         142.8968  136.1916  157.7632 N.ar    1  UNL1       -0.1542
     30 H         143.7252  132.7583  157.5296 H       1  UNL1        0.1438
     31 H         143.0304  133.5246  158.8852 H       1  UNL1        0.1438
     32 C         140.5656  140.3349  170.4171 C.2     1  UNL1        0.0774
     33 O         141.4591  140.8668  171.4982 O.co2   1  UNL1       -0.5444
     34 O         139.3162  139.5868  170.7770 O.co2   1  UNL1       -0.5444
     35 C         139.6593  142.6564  165.8576 C.3     1  UNL1        0.0857
     36 C         138.5487  142.8993  164.8791 C.3     1  UNL1        0.0245
     37 C         139.3688  144.0495  165.3835 C.3     1  UNL1        0.0245
@<TRIPOS>UNITY_ATOM_ATTR
33 1
charge -1
@<TRIPOS>BOND
     1    24    25    1
     2    25    26   ar
     3    26    27   ar
     4    27    28   ar
     5    28    23    1
     6    23    19    1
     7    19    20    2
     8    19    21   am
     9    21    14    1
    10    14    15    1
    11    15    16    1
    12    16    17    1
    13    17     1    1
    14     1     2   ar
    15     2     3    1
    16     2     4   ar
    17     4     5   ar
    18     5     6   ar
    19     6     7    2
    20     6     8   ar
    21     8    32    1
    22    32    33   ar
    23    32    34   ar
    24     8     9   ar
    25     9    10   ar
    26    10    35    1
    27    35    36    1
    28    36    37    1
    29    10    11   ar
    30    11    12   ar
    31    12    13    1
    32    17    18    1
    33    28    29   ar
    34    29    25   ar
    35    18    14    1
    36    12     1   ar
    37    11     5   ar
    38    37    35    1
    39    24    30    1
    40    24    31    1
    41    21    22    1
@<TRIPOS>MOLECULE
*****
 37 41 0 0 0
SMALL
GASTEIGER

@<TRIPOS>ATOM
      1 C         142.8128  141.5819  164.2394 C.ar    1  UNL1        0.0878
      2 C         143.8394  142.3342  165.0331 C.ar    1  UNL1        0.1543
      3 F         145.0576  142.8849  164.3529 F       1  UNL1       -0.2028
      4 C         143.6477  142.5359  166.5071 C.ar    1  UNL1        0.0356
      5 C         142.4295  141.9853  167.1873 C.ar    1  UNL1        0.0580
      6 C         142.2378  142.1870  168.6613 C.ar    1  UNL1        0.1996
      7 O         143.2644  142.9394  169.4550 O.2     1  UNL1       -0.2864
      8 C         141.0196  141.6364  169.3415 C.ar    1  UNL1        0.0701
      9 C         139.9930  140.8839  168.5476 C.ar    1  UNL1        0.0801
     10 N         140.1847  140.6822  167.0737 N.ar    1  UNL1       -0.3270
     11 C         141.4029  141.2329  166.3935 C.ar    1  UNL1        0.0750
     12 C         141.5946  141.0312  164.9196 C.ar    1  UNL1        0.0890
     13 CL        140.5680  140.2788  164.1258 Cl      1  UNL1       -0.0794
     14 C         143.3752  140.3317  160.6080 C.3     1  UNL1        0.0930
     15 C         143.2237  141.8075  160.3863 C.3     1  UNL1        0.0427
     16 C         142.9946  142.4554  161.7196 C.3     1  UNL1        0.0927
     17 N         143.0045  141.3801  162.7654 N.pl3   1  UNL1       -0.3033
     18 C         143.2397  140.0676  162.0784 C.3     1  UNL1        0.1104
     19 C         142.5474  138.3094  159.2026 C.2     1  UNL1        0.2474
     20 O         141.2314  138.3486  159.9214 O.2     1  UNL1       -0.2729
     21 N         143.6193  139.3010  159.5459 N.am    1  UNL1       -0.3026
     22 H         144.4830  139.2754  159.0741 H       1  UNL1        0.1495
     23 C         142.7915  137.2788  158.1404 C.3     1  UNL1        0.2119
     24 N         138.3061  137.4797  155.3619 N.pl3   1  UNL1       -0.3412
     25 C         139.6709  137.0825  155.8408 C.ar    1  UNL1        0.1467
     26 C         140.5355  136.0096  155.2483 C.ar    1  UNL1        0.0558
     27 C         141.8097  135.9525  156.0376 C.ar    1  UNL1        0.0986
     28 N         141.7326  136.9902  157.1180 N.ar    1  UNL1       -0.2389
     29 N         140.4108  137.6886  156.9963 N.ar    1  UNL1       -0.1542
     30 H         137.9020  137.0202  154.5906 H       1  UNL1        0.1438
     31 H         137.8143  138.1999  155.8188 H       1  UNL1        0.1438
     32 C         140.8279  141.8381  170.8154 C.2     1  UNL1        0.0774
     33 O         139.8106  142.8223  171.3117 O.co2   1  UNL1       -0.5444
     34 O         141.6535  141.0555  171.7932 O.co2   1  UNL1       -0.5444
     35 C         139.1581  139.9299  166.2800 C.3     1  UNL1        0.0857
     36 C         138.0427  139.9200  165.2772 C.3     1  UNL1        0.0245
     37 C         138.4955  138.6366  165.9079 C.3     1  UNL1        0.0245
@<TRIPOS>UNITY_ATOM_ATTR
33 1
charge -1
@<TRIPOS>BOND
     1    24    25    1
     2    25    26   ar
     3    26    27   ar
     4    27    28   ar
     5    28    23    1
     6    23    19    1
     7    19    20    2
     8    19    21   am
     9    21    14    1
    10    14    15    1
    11    15    16    1
    12    16    17    1
    13    17     1    1
    14     1     2   ar
    15     2     3    1
    16     2     4   ar
    17     4     5   ar
    18     5     6   ar
    19     6     7    2
    20     6     8   ar
    21     8    32    1
    22    32    33   ar
    23    32    34   ar
    24     8     9   ar
    25     9    10   ar
    26    10    35    1
    27    35    36    1
    28    36    37    1
    29    10    11   ar
    30    11    12   ar
    31    12    13    1
    32    17    18    1
    33    28    29   ar
    34    29    25   ar
    35    18    14    1
    36    12     1   ar
    37    11     5   ar
    38    37    35    1
    39    24    30    1
    40    24    31    1
    41    21    22    1
@<TRIPOS>MOLECULE
*****
 37 41 0 0 0
SMALL
GASTEIGER

@<TRIPOS>ATOM
      1 C         139.5159  139.6975  163.5175 C.ar    1  UNL1        0.0878
      2 C         139.0174  138.6622  164.4816 C.ar    1  UNL1        0.1543
      3 F         138.4603  137.3670  163.9696 F       1  UNL1       -0.2028
      4 C         139.0761  138.9221  165.9577 C.ar    1  UNL1        0.0356
      5 C         139.6332  140.2172  166.4697 C.ar    1  UNL1        0.0580
      6 C         139.6918  140.4771  167.9459 C.ar    1  UNL1        0.1996
      7 O         139.1934  139.4418  168.9101 O.2     1  UNL1       -0.2864
      8 C         140.2489  141.7723  168.4579 C.ar    1  UNL1        0.0701
      9 C         140.7474  142.8076  167.4937 C.ar    1  UNL1        0.0801
     10 N         140.6887  142.5478  166.0176 N.ar    1  UNL1       -0.3270
     11 C         140.1316  141.2526  165.5056 C.ar    1  UNL1        0.0750
     12 C         140.0730  140.9927  164.0295 C.ar    1  UNL1        0.0890
     13 CL        140.5715  142.0281  163.0652 Cl      1  UNL1       -0.0794
     14 C         140.0894  138.8360  159.7765 C.3     1  UNL1        0.0930
     15 C         138.6448  139.2397  159.7628 C.3     1  UNL1        0.0427
     16 C         138.2541  139.6115  161.1625 C.3     1  UNL1        0.0927
     17 N         139.4572  139.4377  162.0413 N.pl3   1  UNL1       -0.3033
     18 C         140.5915  138.9584  161.1847 C.3     1  UNL1        0.1104
     19 C         142.0800  139.1870  158.1442 C.2     1  UNL1        0.2474
     20 O         142.4672  140.4330  158.8844 O.2     1  UNL1       -0.2729
     21 N         140.8911  138.3886  158.5903 N.am    1  UNL1       -0.3026
     22 H         140.6370  137.5708  158.1046 H       1  UNL1        0.1495
     23 C         142.8817  138.7396  156.9581 C.3     1  UNL1        0.2119
     24 N         143.2820  133.5366  157.7639 N.pl3   1  UNL1       -0.3412
     25 C         143.3434  134.8891  157.1181 C.ar    1  UNL1        0.1467
     26 C         143.8300  135.1819  155.7298 C.ar    1  UNL1        0.0558
     27 C         143.7163  136.6599  155.5009 C.ar    1  UNL1        0.0986
     28 N         143.1594  137.2806  156.7477 N.ar    1  UNL1       -0.2389
     29 N         142.9289  136.1861  157.7472 N.ar    1  UNL1       -0.1542
     30 H         143.5784  132.7400  157.2672 H       1  UNL1        0.1438
     31 H         142.9453  133.4456  158.6846 H       1  UNL1        0.1438
     32 C         140.3076  142.0321  169.9340 C.2     1  UNL1        0.0774
     33 O         141.6250  141.9954  170.6503 O.co2   1  UNL1       -0.5444
     34 O         139.0488  142.3288  170.6940 O.co2   1  UNL1       -0.5444
     35 C         141.1872  143.5831  165.0534 C.3     1  UNL1        0.0857
     36 C         140.9274  144.7658  164.1682 C.3     1  UNL1        0.0245
     37 C         142.3103  144.1936  164.2687 C.3     1  UNL1        0.0245
@<TRIPOS>UNITY_ATOM_ATTR
33 1
charge -1
@<TRIPOS>BOND
     1    24    25    1
     2    25    26   ar
     3    26    27   ar
     4    27    28   ar
     5    28    23    1
     6    23    19    1
     7    19    20    2
     8    19    21   am
     9    21    14    1
    10    14    15    1
    11    15    16    1
    12    16    17    1
    13    17     1    1
    14     1     2   ar
    15     2     3    1
    16     2     4   ar
    17     4     5   ar
    18     5     6   ar
    19     6     7    2
    20     6     8   ar
    21     8    32    1
    22    32    33   ar
    23    32    34   ar
    24     8     9   ar
    25     9    10   ar
    26    10    35    1
    27    35    36    1
    28    36    37    1
    29    10    11   ar
    30    11    12   ar
    31    12    13    1
    32    17    18    1
    33    28    29   ar
    34    29    25   ar
    35    18    14    1
    36    12     1   ar
    37    11     5   ar
    38    37    35    1
    39    24    30    1
    40    24    31    1
    41    21    22    1
@<TRIPOS>MOLECULE
*****
 37 41 0 0 0
SMALL
GASTEIGER

@<TRIPOS>ATOM
      1 C         139.8210  139.8461  162.7082 C.ar    1  UNL1        0.0878
      2 C         138.6575  139.0757  163.2585 C.ar    1  UNL1        0.1543
      3 F         137.7116  138.3783  162.3264 F       1  UNL1       -0.2028
      4 C         138.4399  139.0029  164.7408 C.ar    1  UNL1        0.0356
      5 C         139.3859  139.7004  165.6729 C.ar    1  UNL1        0.0580
      6 C         139.1682  139.6275  167.1553 C.ar    1  UNL1        0.1996
      7 O         138.0047  138.8571  167.7055 O.2     1  UNL1       -0.2864
      8 C         140.1142  140.3249  168.0873 C.ar    1  UNL1        0.0701
      9 C         141.2777  141.0953  167.5370 C.ar    1  UNL1        0.0801
     10 N         141.4953  141.1681  166.0547 N.ar    1  UNL1       -0.3270
     11 C         140.5494  140.4707  165.1226 C.ar    1  UNL1        0.0750
     12 C         140.7669  140.5435  163.6403 C.ar    1  UNL1        0.0890
     13 CL        141.9305  141.3139  163.0900 Cl      1  UNL1       -0.0794
     14 C         139.9557  140.6533  158.9140 C.3     1  UNL1        0.0930
     15 C         140.7912  139.4090  158.9755 C.3     1  UNL1        0.0427
     16 C         140.8425  138.9552  160.4043 C.3     1  UNL1        0.0927
     17 N         140.0386  139.9190  161.2259 N.pl3   1  UNL1       -0.3033
     18 C         139.4906  140.9685  160.3048 C.3     1  UNL1        0.1104
     19 C         138.2826  141.3428  157.0498 C.2     1  UNL1        0.2474
     20 O         137.2396  140.4514  157.6563 O.2     1  UNL1       -0.2729
     21 N         139.6407  141.4437  157.6787 N.am    1  UNL1       -0.3026
     22 H         140.3253  142.0286  157.2807 H       1  UNL1        0.1495
     23 C         137.9676  142.1331  155.8144 C.3     1  UNL1        0.2119
     24 N         140.4425  146.7436  156.5206 N.pl3   1  UNL1       -0.3412
     25 C         139.4519  145.7102  156.0726 C.ar    1  UNL1        0.1467
     26 C         138.2437  145.9586  155.2192 C.ar    1  UNL1        0.0558
     27 C         137.5406  144.6489  155.0186 C.ar    1  UNL1        0.0986
     28 N         138.3143  143.5910  155.7481 N.ar    1  UNL1       -0.2389
     29 N         139.4955  144.2469  156.3995 N.ar    1  UNL1       -0.1542
     30 H         140.3278  147.6840  156.2530 H       1  UNL1        0.1438
     31 H         141.2074  146.4813  157.0822 H       1  UNL1        0.1438
     32 C         139.8966  140.2521  169.5697 C.2     1  UNL1        0.0774
     33 O         140.7498  139.3483  170.4094 O.co2   1  UNL1       -0.5444
     34 O         138.8257  141.0830  170.2123 O.co2   1  UNL1       -0.5444
     35 C         142.6588  141.9385  165.5045 C.3     1  UNL1        0.0857
     36 C         143.2632  143.2372  165.0594 C.3     1  UNL1        0.0245
     37 C         144.0697  141.9741  164.9965 C.3     1  UNL1        0.0245
@<TRIPOS>UNITY_ATOM_ATTR
33 1
charge -1
@<TRIPOS>BOND
     1    24    25    1
     2    25    26   ar
     3    26    27   ar
     4    27    28   ar
     5    28    23    1
     6    23    19    1
     7    19    20    2
     8    19    21   am
     9    21    14    1
    10    14    15    1
    11    15    16    1
    12    16    17    1
    13    17     1    1
    14     1     2   ar
    15     2     3    1
    16     2     4   ar
    17     4     5   ar
    18     5     6   ar
    19     6     7    2
    20     6     8   ar
    21     8    32    1
    22    32    33   ar
    23    32    34   ar
    24     8     9   ar
    25     9    10   ar
    26    10    35    1
    27    35    36    1
    28    36    37    1
    29    10    11   ar
    30    11    12   ar
    31    12    13    1
    32    17    18    1
    33    28    29   ar
    34    29    25   ar
    35    18    14    1
    36    12     1   ar
    37    11     5   ar
    38    37    35    1
    39    24    30    1
    40    24    31    1
    41    21    22    1
@<TRIPOS>MOLECULE
*****
 37 41 0 0 0
SMALL
GASTEIGER

@<TRIPOS>ATOM
      1 C         140.9812  139.5202  164.4083 C.ar    1  UNL1        0.0878
      2 C         141.7236  138.6250  165.3556 C.ar    1  UNL1        0.1543
      3 F         142.1703  137.2649  164.9077 F       1  UNL1       -0.2028
      4 C         142.0193  139.0898  166.7507 C.ar    1  UNL1        0.0356
      5 C         141.5727  140.4499  167.1986 C.ar    1  UNL1        0.0580
      6 C         141.8684  140.9148  168.5938 C.ar    1  UNL1        0.1996
      7 O         142.6109  140.0195  169.5410 O.2     1  UNL1       -0.2864
      8 C         141.4218  142.2749  169.0417 C.ar    1  UNL1        0.0701
      9 C         140.6793  143.1701  168.0943 C.ar    1  UNL1        0.0801
     10 N         140.3835  142.7053  166.6992 N.ar    1  UNL1       -0.3270
     11 C         140.8302  141.3452  166.2513 C.ar    1  UNL1        0.0750
     12 C         140.5345  140.8803  164.8562 C.ar    1  UNL1        0.0890
     13 CL        139.7920  141.7756  163.9089 Cl      1  UNL1       -0.0794
     14 C         140.9304  138.5132  160.6601 C.3     1  UNL1        0.0930
     15 C         139.5303  138.1670  161.0723 C.3     1  UNL1        0.0427
     16 C         139.3789  138.5020  162.5265 C.3     1  UNL1        0.0927
     17 N         140.6854  139.0554  163.0131 N.pl3   1  UNL1       -0.3033
     18 C         141.6443  139.0623  161.8596 C.3     1  UNL1        0.1104
     19 C         141.2264  139.3516  158.2189 C.2     1  UNL1        0.2474
     20 O         140.3550  140.5350  158.5196 O.2     1  UNL1       -0.2729
     21 N         141.5141  138.3407  159.2891 N.am    1  UNL1       -0.3026
     22 H         142.0860  137.5641  159.0918 H       1  UNL1        0.1495
     23 C         141.8101  139.1791  156.8479 C.3     1  UNL1        0.2119
     24 N         142.9296  134.0415  156.3660 N.pl3   1  UNL1       -0.3412
     25 C         143.0113  135.5355  156.2595 C.ar    1  UNL1        0.1467
     26 C         144.0954  136.3124  155.5732 C.ar    1  UNL1        0.0558
     27 C         143.7774  137.7719  155.7101 C.ar    1  UNL1        0.0986
     28 N         142.4967  137.8969  156.4810 N.ar    1  UNL1       -0.2389
     29 N         142.0233  136.5147  156.8205 N.ar    1  UNL1       -0.1542
     30 H         143.6307  133.4802  155.9628 H       1  UNL1        0.1438
     31 H         142.1749  133.6223  156.8392 H       1  UNL1        0.1438
     32 C         141.7175  142.7397  170.4368 C.2     1  UNL1        0.0774
     33 O         140.8907  142.2409  171.5846 O.co2   1  UNL1       -0.5444
     34 O         142.8401  143.7034  170.6841 O.co2   1  UNL1       -0.5444
     35 C         139.6411  143.6005  165.7520 C.3     1  UNL1        0.0857
     36 C         139.6491  144.6569  164.6871 C.3     1  UNL1        0.0245
     37 C         138.3473  144.0948  165.1762 C.3     1  UNL1        0.0245
@<TRIPOS>UNITY_ATOM_ATTR
33 1
charge -1
@<TRIPOS>BOND
     1    24    25    1
     2    25    26   ar
     3    26    27   ar
     4    27    28   ar
     5    28    23    1
     6    23    19    1
     7    19    20    2
     8    19    21   am
     9    21    14    1
    10    14    15    1
    11    15    16    1
    12    16    17    1
    13    17     1    1
    14     1     2   ar
    15     2     3    1
    16     2     4   ar
    17     4     5   ar
    18     5     6   ar
    19     6     7    2
    20     6     8   ar
    21     8    32    1
    22    32    33   ar
    23    32    34   ar
    24     8     9   ar
    25     9    10   ar
    26    10    35    1
    27    35    36    1
    28    36    37    1
    29    10    11   ar
    30    11    12   ar
    31    12    13    1
    32    17    18    1
    33    28    29   ar
    34    29    25   ar
    35    18    14    1
    36    12     1   ar
    37    11     5   ar
    38    37    35    1
    39    24    30    1
    40    24    31    1
    41    21    22    1
@<TRIPOS>MOLECULE
*****
 37 41 0 0 0
SMALL
GASTEIGER

@<TRIPOS>ATOM
      1 C         139.8640  139.8447  162.7625 C.ar    1  UNL1        0.0878
      2 C         138.7372  139.0094  163.2941 C.ar    1  UNL1        0.1543
      3 F         137.8527  138.2533  162.3477 F       1  UNL1       -0.2028
      4 C         138.4949  138.9304  164.7723 C.ar    1  UNL1        0.0356
      5 C         139.3794  139.6866  165.7188 C.ar    1  UNL1        0.0580
      6 C         139.1371  139.6075  167.1970 C.ar    1  UNL1        0.1996
      7 O         138.0103  138.7723  167.7287 O.2     1  UNL1       -0.2864
      8 C         140.0216  140.3637  168.1435 C.ar    1  UNL1        0.0701
      9 C         141.1484  141.1989  167.6118 C.ar    1  UNL1        0.0801
     10 N         141.3907  141.2780  166.1336 N.ar    1  UNL1       -0.3270
     11 C         140.5062  140.5218  165.1871 C.ar    1  UNL1        0.0750
     12 C         140.7485  140.6008  163.7090 C.ar    1  UNL1        0.0890
     13 CL        141.8753  141.4361  163.1772 Cl      1  UNL1       -0.0794
     14 C         139.8767  140.4858  158.9343 C.3     1  UNL1        0.0930
     15 C         141.0816  139.6050  159.0848 C.3     1  UNL1        0.0427
     16 C         141.2235  139.2577  160.5371 C.3     1  UNL1        0.0927
     17 N         140.1063  139.9237  161.2842 N.pl3   1  UNL1       -0.3033
     18 C         139.2740  140.6828  160.2937 C.3     1  UNL1        0.1104
     19 C         138.7999  140.1672  156.5915 C.2     1  UNL1        0.2474
     20 O         138.7474  138.6851  156.8172 O.2     1  UNL1       -0.2729
     21 N         139.3646  141.0675  157.6501 N.am    1  UNL1       -0.3026
     22 H         139.3990  142.0402  157.5020 H       1  UNL1        0.1495
     23 C         138.2877  140.7488  155.3073 C.3     1  UNL1        0.2119
     24 N         133.1213  139.7013  155.6098 N.pl3   1  UNL1       -0.3412
     25 C         134.4541  140.1746  155.1101 C.ar    1  UNL1        0.1467
     26 C         134.7136  140.8520  153.7973 C.ar    1  UNL1        0.0558
     27 C         136.1812  141.1495  153.7113 C.ar    1  UNL1        0.0986
     28 N         136.8288  140.6560  154.9710 N.ar    1  UNL1       -0.2389
     29 N         135.7614  140.0535  155.8356 N.ar    1  UNL1       -0.1542
     30 H         132.3159  139.8265  155.0578 H       1  UNL1        0.1438
     31 H         133.0521  139.2655  156.4899 H       1  UNL1        0.1438
     32 C         139.7793  140.2846  169.6217 C.2     1  UNL1        0.0774
     33 O         140.6321  139.3931  170.4749 O.co2   1  UNL1       -0.5444
     34 O         138.6842  141.0972  170.2467 O.co2   1  UNL1       -0.5444
     35 C         142.5175  142.1132  165.6020 C.3     1  UNL1        0.0857
     36 C         143.0351  143.4288  165.1007 C.3     1  UNL1        0.0245
     37 C         143.9516  142.2443  165.1823 C.3     1  UNL1        0.0245
@<TRIPOS>UNITY_ATOM_ATTR
33 1
charge -1
@<TRIPOS>BOND
     1    24    25    1
     2    25    26   ar
     3    26    27   ar
     4    27    28   ar
     5    28    23    1
     6    23    19    1
     7    19    20    2
     8    19    21   am
     9    21    14    1
    10    14    15    1
    11    15    16    1
    12    16    17    1
    13    17     1    1
    14     1     2   ar
    15     2     3    1
    16     2     4   ar
    17     4     5   ar
    18     5     6   ar
    19     6     7    2
    20     6     8   ar
    21     8    32    1
    22    32    33   ar
    23    32    34   ar
    24     8     9   ar
    25     9    10   ar
    26    10    35    1
    27    35    36    1
    28    36    37    1
    29    10    11   ar
    30    11    12   ar
    31    12    13    1
    32    17    18    1
    33    28    29   ar
    34    29    25   ar
    35    18    14    1
    36    12     1   ar
    37    11     5   ar
    38    37    35    1
    39    24    30    1
    40    24    31    1
    41    21    22    1
@<TRIPOS>MOLECULE
*****
 37 41 0 0 0
SMALL
GASTEIGER

@<TRIPOS>ATOM
      1 C         139.9101  139.8935  164.8422 C.ar    1  UNL1        0.0878
      2 C         138.9725  139.5571  165.9636 C.ar    1  UNL1        0.1543
      3 F         137.7426  138.7419  165.6939 F       1  UNL1       -0.2028
      4 C         139.2647  140.0359  167.3547 C.ar    1  UNL1        0.0356
      5 C         140.4946  140.8512  167.6244 C.ar    1  UNL1        0.0580
      6 C         140.7869  141.3300  169.0156 C.ar    1  UNL1        0.1996
      7 O         139.8492  140.9936  170.1370 O.2     1  UNL1       -0.2864
      8 C         142.0168  142.1453  169.2854 C.ar    1  UNL1        0.0701
      9 C         142.9544  142.4817  168.1639 C.ar    1  UNL1        0.0801
     10 N         142.6622  142.0028  166.7727 N.ar    1  UNL1       -0.3270
     11 C         141.4323  141.1876  166.5030 C.ar    1  UNL1        0.0750
     12 C         141.1400  140.7088  165.1119 C.ar    1  UNL1        0.0890
     13 CL        142.0777  141.0452  163.9904 Cl      1  UNL1       -0.0794
     14 C         139.1767  139.3866  161.0645 C.3     1  UNL1        0.0930
     15 C         139.1598  137.9693  161.5558 C.3     1  UNL1        0.0427
     16 C         139.4325  137.9868  163.0307 C.3     1  UNL1        0.0927
     17 N         139.6179  139.4147  163.4510 N.pl3   1  UNL1       -0.3033
     18 C         139.4598  140.2798  162.2358 C.3     1  UNL1        0.1104
     19 C         140.0761  139.7869  158.6602 C.2     1  UNL1        0.2474
     20 O         141.4286  139.2959  159.0844 O.2     1  UNL1       -0.2729
     21 N         138.9502  139.8322  159.6503 N.am    1  UNL1       -0.3026
     22 H         138.0626  140.1544  159.3719 H       1  UNL1        0.1495
     23 C         139.8497  140.2325  157.2459 C.3     1  UNL1        0.2119
     24 N         134.7175  140.9240  156.2148 N.pl3   1  UNL1       -0.3412
     25 C         136.1858  141.1802  156.3839 C.ar    1  UNL1        0.1467
     26 C         136.8876  142.4826  156.1376 C.ar    1  UNL1        0.0558
     27 C         138.3456  142.2862  156.4305 C.ar    1  UNL1        0.0986
     28 N         138.5447  140.8623  156.8579 N.ar    1  UNL1       -0.2389
     29 N         137.2099  140.1787  156.8291 N.ar    1  UNL1       -0.1542
     30 H         134.1225  141.6494  155.9163 H       1  UNL1        0.1438
     31 H         134.3489  140.0306  156.4022 H       1  UNL1        0.1438
     32 C         142.3090  142.6241  170.6765 C.2     1  UNL1        0.0774
     33 O         143.2090  143.8050  170.8896 O.co2   1  UNL1       -0.5444
     34 O         141.7013  141.9219  171.8545 O.co2   1  UNL1       -0.5444
     35 C         143.5998  142.3393  165.6513 C.3     1  UNL1        0.0857
     36 C         144.7050  141.9413  164.7185 C.3     1  UNL1        0.0245
     37 C         144.1187  143.3198  164.6418 C.3     1  UNL1        0.0245
@<TRIPOS>UNITY_ATOM_ATTR
33 1
charge -1
@<TRIPOS>BOND
     1    24    25    1
     2    25    26   ar
     3    26    27   ar
     4    27    28   ar
     5    28    23    1
     6    23    19    1
     7    19    20    2
     8    19    21   am
     9    21    14    1
    10    14    15    1
    11    15    16    1
    12    16    17    1
    13    17     1    1
    14     1     2   ar
    15     2     3    1
    16     2     4   ar
    17     4     5   ar
    18     5     6   ar
    19     6     7    2
    20     6     8   ar
    21     8    32    1
    22    32    33   ar
    23    32    34   ar
    24     8     9   ar
    25     9    10   ar
    26    10    35    1
    27    35    36    1
    28    36    37    1
    29    10    11   ar
    30    11    12   ar
    31    12    13    1
    32    17    18    1
    33    28    29   ar
    34    29    25   ar
    35    18    14    1
    36    12     1   ar
    37    11     5   ar
    38    37    35    1
    39    24    30    1
    40    24    31    1
    41    21    22    1
