@<TRIPOS>MOLECULE
*****
 36 39 0 0 0
SMALL
GASTEIGER

@<TRIPOS>ATOM
      1 N         140.7809  138.0068  160.6308 N.am    1  UNL1       -0.2752
      2 C         142.0917  138.6025  160.2105 C.2     1  UNL1        0.3050
      3 O         142.8753  139.4455  161.1724 O.2     1  UNL1       -0.2646
      4 H         140.2666  137.4535  159.9994 H       1  UNL1        0.1554
      5 C         139.1991  138.7482  164.7780 C.ar    1  UNL1        0.2248
      6 C         140.2229  137.6767  164.5462 C.ar    1  UNL1        0.0590
      7 C         140.7501  137.4295  163.1638 C.ar    1  UNL1        0.0211
      8 C         140.2536  138.2539  162.0132 C.ar    1  UNL1        0.0703
      9 C         139.2299  139.3255  162.2450 C.ar    1  UNL1        0.1167
     10 N         138.7026  139.5726  163.6274 N.ar    1  UNL1       -0.2088
     11 O         138.6719  138.9953  166.1603 O.3     1  UNL1       -0.4640
     12 C         140.4962  142.2138  168.7222 C.3     1  UNL1        0.0058
     13 C         139.8660  141.0127  169.3626 C.3     1  UNL1        0.0041
     14 C         139.2579  139.9399  168.5086 C.3     1  UNL1        0.0436
     15 C         139.2800  140.0682  167.0143 C.3     1  UNL1        0.1675
     16 C         139.9102  141.2693  166.3740 C.3     1  UNL1        0.0436
     17 C         140.5183  142.3421  167.2279 C.3     1  UNL1        0.0041
     18 C         141.1043  143.2867  169.5762 C.3     1  UNL1        0.0417
     19 O         141.7560  142.2961  171.8880 O.co2   1  UNL1       -0.5492
     20 C         142.1525  142.9344  170.5897 C.2     1  UNL1        0.0503
     21 O         143.5971  143.2205  170.3050 O.co2   1  UNL1       -0.5492
     22 C         142.6189  138.3553  158.8281 C.ar    1  UNL1        0.3052
     23 N         143.4680  139.2971  158.0268 N.ar    1  UNL1       -0.1010
     24 N         143.7635  138.6468  156.7078 N.ar    1  UNL1       -0.0919
     25 C         143.0969  137.3031  156.6939 C.ar    1  UNL1        0.3126
     26 O         142.3895  137.1230  158.0043 O.2     1  UNL1       -0.4006
     27 N         143.1316  136.3133  155.5674 N.pl3   1  UNL1       -0.2664
     28 H         143.2580  136.6248  154.6421 H       1  UNL1        0.1566
     29 C         142.9739  134.8487  155.8507 C.ar    1  UNL1        0.0541
     30 C         141.8799  134.0693  155.1832 C.ar    1  UNL1        0.0172
     31 C         141.7222  132.6048  155.4665 C.ar    1  UNL1        0.0332
     32 C         142.6585  131.9197  156.4172 C.ar    1  UNL1        0.1675
     33 F         142.5007  130.4551  156.7005 F       1  UNL1       -0.2018
     34 C         143.7525  132.6991  157.0847 C.ar    1  UNL1        0.1686
     35 F         144.6888  132.0140  158.0355 F       1  UNL1       -0.2018
     36 C         143.9102  134.1636  156.8014 C.ar    1  UNL1        0.0467
@<TRIPOS>UNITY_ATOM_ATTR
19 1
charge -1
@<TRIPOS>BOND
     1    19    20   ar
     2    20    21   ar
     3    20    18    1
     4    12    18    1
     5    12    13    1
     6    13    14    1
     7    14    15    1
     8    15    11    1
     9    11     5    1
    10     5     6   ar
    11     6     7   ar
    12     7     8   ar
    13     8     1    1
    14     1     2   am
    15     2     3    2
    16     2    22    1
    17    22    23   ar
    18    23    24   ar
    19    24    25   ar
    20    25    27    1
    21    27    29    1
    22    29    30   ar
    23    30    31   ar
    24    31    32   ar
    25    32    33    1
    26    32    34   ar
    27    34    35    1
    28    34    36   ar
    29    25    26   ar
    30     8     9   ar
    31     9    10   ar
    32    15    16    1
    33    16    17    1
    34    17    12    1
    35    10     5   ar
    36    26    22   ar
    37    36    29   ar
    38     1     4    1
    39    27    28    1
@<TRIPOS>MOLECULE
*****
 36 39 0 0 0
SMALL
GASTEIGER

@<TRIPOS>ATOM
      1 N         137.1927  139.9233  160.4224 N.am    1  UNL1       -0.2752
      2 C         138.0832  140.4669  159.3447 C.2     1  UNL1        0.3050
      3 O         139.5567  140.6062  159.5887 O.2     1  UNL1       -0.2646
      4 H         136.2256  139.8319  160.2623 H       1  UNL1        0.1554
      5 C         138.9414  138.7105  164.3875 C.ar    1  UNL1        0.2248
      6 C         138.3123  140.0628  164.2273 C.ar    1  UNL1        0.0590
      7 C         137.7294  140.4670  162.9056 C.ar    1  UNL1        0.0211
      8 C         137.7756  139.5190  161.7441 C.ar    1  UNL1        0.0703
      9 C         138.4046  138.1668  161.9042 C.ar    1  UNL1        0.1167
     10 N         138.9875  137.7625  163.2260 N.ar    1  UNL1       -0.2088
     11 O         139.5242  138.3062  165.7091 O.3     1  UNL1       -0.4640
     12 C         141.0352  141.4460  168.5568 C.3     1  UNL1        0.0058
     13 C         139.6996  140.8037  168.7884 C.3     1  UNL1        0.0041
     14 C         139.1960  139.7571  167.8392 C.3     1  UNL1        0.0436
     15 C         140.0279  139.3528  166.6583 C.3     1  UNL1        0.1675
     16 C         141.3634  139.9951  166.4267 C.3     1  UNL1        0.0436
     17 C         141.8671  141.0417  167.3759 C.3     1  UNL1        0.0041
     18 C         141.5388  142.4926  169.5060 C.3     1  UNL1        0.0417
     19 O         140.5718  142.2113  171.9010 O.co2   1  UNL1       -0.5492
     20 C         140.6589  142.9828  170.6175 C.2     1  UNL1        0.0503
     21 O         139.8662  144.2446  170.4456 O.co2   1  UNL1       -0.5492
     22 C         137.5003  140.8711  158.0231 C.ar    1  UNL1        0.3052
     23 N         138.0572  141.9090  157.0943 N.ar    1  UNL1       -0.1010
     24 N         137.1592  141.9879  155.8954 N.ar    1  UNL1       -0.0919
     25 C         136.0473  140.9987  156.0833 C.ar    1  UNL1        0.3126
     26 O         136.2581  140.3086  157.3983 O.2     1  UNL1       -0.4006
     27 N         134.9221  140.7443  155.1245 N.pl3   1  UNL1       -0.2664
     28 H         135.1017  140.6898  154.1580 H       1  UNL1        0.1566
     29 C         133.5233  140.5731  155.6381 C.ar    1  UNL1        0.0541
     30 C         132.4217  141.4497  155.1206 C.ar    1  UNL1        0.0172
     31 C         131.0228  141.2784  155.6343 C.ar    1  UNL1        0.0332
     32 C         130.7256  140.2305  156.6655 C.ar    1  UNL1        0.1675
     33 F         129.3267  140.0592  157.1792 F       1  UNL1       -0.2018
     34 C         131.8272  139.3538  157.1831 C.ar    1  UNL1        0.1686
     35 F         131.5300  138.3058  158.2143 F       1  UNL1       -0.2018
     36 C         133.2260  139.5251  156.6694 C.ar    1  UNL1        0.0467
@<TRIPOS>UNITY_ATOM_ATTR
19 1
charge -1
@<TRIPOS>BOND
     1    19    20   ar
     2    20    21   ar
     3    20    18    1
     4    12    18    1
     5    12    13    1
     6    13    14    1
     7    14    15    1
     8    15    11    1
     9    11     5    1
    10     5     6   ar
    11     6     7   ar
    12     7     8   ar
    13     8     1    1
    14     1     2   am
    15     2     3    2
    16     2    22    1
    17    22    23   ar
    18    23    24   ar
    19    24    25   ar
    20    25    27    1
    21    27    29    1
    22    29    30   ar
    23    30    31   ar
    24    31    32   ar
    25    32    33    1
    26    32    34   ar
    27    34    35    1
    28    34    36   ar
    29    25    26   ar
    30     8     9   ar
    31     9    10   ar
    32    15    16    1
    33    16    17    1
    34    17    12    1
    35    10     5   ar
    36    26    22   ar
    37    36    29   ar
    38     1     4    1
    39    27    28    1
@<TRIPOS>MOLECULE
*****
 36 39 0 0 0
SMALL
GASTEIGER

@<TRIPOS>ATOM
      1 N         143.8833  139.0896  159.8755 N.am    1  UNL1       -0.2752
      2 C         142.8442  139.0584  158.7942 C.2     1  UNL1        0.3050
      3 O         141.7170  140.0480  158.8085 O.2     1  UNL1       -0.2646
      4 H         144.6232  138.4402  159.8661 H       1  UNL1        0.1554
      5 C         143.6191  142.1519  163.1624 C.ar    1  UNL1        0.2248
      6 C         143.3938  140.7009  163.4691 C.ar    1  UNL1        0.0590
      7 C         143.4819  139.6802  162.3735 C.ar    1  UNL1        0.0211
      8 C         143.7953  140.1104  160.9711 C.ar    1  UNL1        0.0703
      9 C         144.0206  141.5613  160.6643 C.ar    1  UNL1        0.1167
     10 N         143.9325  142.5821  161.7600 N.ar    1  UNL1       -0.2088
     11 O         143.5311  143.1725  164.2580 O.3     1  UNL1       -0.4640
     12 C         141.0863  142.3180  167.9380 C.3     1  UNL1        0.0058
     13 C         142.5770  142.1549  167.9734 C.3     1  UNL1        0.0041
     14 C         143.3919  142.4398  166.7467 C.3     1  UNL1        0.0436
     15 C         142.7162  142.8877  165.4847 C.3     1  UNL1        0.1675
     16 C         141.2255  143.0507  165.4494 C.3     1  UNL1        0.0436
     17 C         140.4106  142.7659  166.6760 C.3     1  UNL1        0.0041
     18 C         140.2714  142.0331  169.1647 C.3     1  UNL1        0.0417
     19 O         140.3841  142.2946  171.7472 O.co2   1  UNL1       -0.5492
     20 C         140.4112  142.9051  170.3772 C.2     1  UNL1        0.0503
     21 O         140.5782  144.3874  170.2198 O.co2   1  UNL1       -0.5492
     22 C         142.9323  138.0377  157.6987 C.ar    1  UNL1        0.3052
     23 N         143.7075  138.1789  156.4222 N.ar    1  UNL1       -0.1010
     24 N         143.5149  136.9250  155.6218 N.ar    1  UNL1       -0.0919
     25 C         142.6208  136.0088  156.4036 C.ar    1  UNL1        0.3126
     26 O         142.2607  136.6965  157.6871 O.2     1  UNL1       -0.4006
     27 N         142.1664  134.6445  155.9768 N.pl3   1  UNL1       -0.2664
     28 H         141.3929  134.5490  155.3753 H       1  UNL1        0.1566
     29 C         142.8907  133.4256  156.4663 C.ar    1  UNL1        0.0541
     30 C         142.3663  132.0592  156.1380 C.ar    1  UNL1        0.0172
     31 C         143.0906  130.8403  156.6275 C.ar    1  UNL1        0.0332
     32 C         144.3391  130.9878  157.4455 C.ar    1  UNL1        0.1675
     33 F         145.0634  129.7687  157.9351 F       1  UNL1       -0.2018
     34 C         144.8636  132.3542  157.7739 C.ar    1  UNL1        0.1686
     35 F         146.1122  132.5017  158.5920 F       1  UNL1       -0.2018
     36 C         144.1393  133.5731  157.2844 C.ar    1  UNL1        0.0467
@<TRIPOS>UNITY_ATOM_ATTR
19 1
charge -1
@<TRIPOS>BOND
     1    19    20   ar
     2    20    21   ar
     3    20    18    1
     4    12    18    1
     5    12    13    1
     6    13    14    1
     7    14    15    1
     8    15    11    1
     9    11     5    1
    10     5     6   ar
    11     6     7   ar
    12     7     8   ar
    13     8     1    1
    14     1     2   am
    15     2     3    2
    16     2    22    1
    17    22    23   ar
    18    23    24   ar
    19    24    25   ar
    20    25    27    1
    21    27    29    1
    22    29    30   ar
    23    30    31   ar
    24    31    32   ar
    25    32    33    1
    26    32    34   ar
    27    34    35    1
    28    34    36   ar
    29    25    26   ar
    30     8     9   ar
    31     9    10   ar
    32    15    16    1
    33    16    17    1
    34    17    12    1
    35    10     5   ar
    36    26    22   ar
    37    36    29   ar
    38     1     4    1
    39    27    28    1
@<TRIPOS>MOLECULE
*****
 36 39 0 0 0
SMALL
GASTEIGER

@<TRIPOS>ATOM
      1 N         140.8390  138.7072  159.5146 N.am    1  UNL1       -0.2752
      2 C         142.3336  138.7782  159.4109 C.2     1  UNL1        0.3050
      3 O         143.1519  139.1503  160.6118 O.2     1  UNL1       -0.2646
      4 H         140.3019  138.4630  158.7264 H       1  UNL1        0.1554
      5 C         138.8094  139.6102  163.4281 C.ar    1  UNL1        0.2248
      6 C         138.8289  140.6405  162.3381 C.ar    1  UNL1        0.0590
      7 C         139.5054  140.3395  161.0336 C.ar    1  UNL1        0.0211
      8 C         140.1624  139.0082  160.8191 C.ar    1  UNL1        0.0703
      9 C         140.1429  137.9779  161.9091 C.ar    1  UNL1        0.1167
     10 N         139.4664  138.2789  163.2137 N.ar    1  UNL1       -0.2088
     11 O         138.1328  139.9112  164.7326 O.3     1  UNL1       -0.4640
     12 C         140.5206  141.5368  168.1831 C.3     1  UNL1        0.0058
     13 C         140.3659  142.3471  166.9303 C.3     1  UNL1        0.0041
     14 C         139.5700  141.8052  165.7802 C.3     1  UNL1        0.0436
     15 C         138.9288  140.4531  165.8828 C.3     1  UNL1        0.1675
     16 C         139.0835  139.6428  167.1355 C.3     1  UNL1        0.0436
     17 C         139.8794  140.1847  168.2857 C.3     1  UNL1        0.0041
     18 C         141.3166  142.0786  169.3333 C.3     1  UNL1        0.0417
     19 O         140.5302  142.2003  171.8065 O.co2   1  UNL1       -0.5492
     20 C         140.6259  142.8159  170.4420 C.2     1  UNL1        0.0503
     21 O         140.0309  144.1690  170.1863 O.co2   1  UNL1       -0.5492
     22 C         143.0101  138.4772  158.1064 C.ar    1  UNL1        0.3052
     23 N         143.7849  139.4516  157.2696 N.ar    1  UNL1       -0.1010
     24 N         144.2842  138.7256  156.0557 N.ar    1  UNL1       -0.0919
     25 C         143.8180  137.3024  156.1423 C.ar    1  UNL1        0.3126
     26 O         143.0306  137.1490  157.4098 O.2     1  UNL1       -0.4006
     27 N         144.0913  136.2224  155.1379 N.pl3   1  UNL1       -0.2664
     28 H         144.8392  136.3168  154.5048 H       1  UNL1        0.1566
     29 C         143.2249  134.9986  155.0981 C.ar    1  UNL1        0.0541
     30 C         142.2094  134.8337  154.0065 C.ar    1  UNL1        0.0172
     31 C         141.3431  133.6099  153.9667 C.ar    1  UNL1        0.0332
     32 C         141.4922  132.5509  155.0184 C.ar    1  UNL1        0.1675
     33 F         140.6257  131.3270  154.9786 F       1  UNL1       -0.2018
     34 C         142.5077  132.7157  156.1100 C.ar    1  UNL1        0.1686
     35 F         142.6568  131.6567  157.1618 F       1  UNL1       -0.2018
     36 C         143.3740  133.9395  156.1498 C.ar    1  UNL1        0.0467
@<TRIPOS>UNITY_ATOM_ATTR
19 1
charge -1
@<TRIPOS>BOND
     1    19    20   ar
     2    20    21   ar
     3    20    18    1
     4    12    18    1
     5    12    13    1
     6    13    14    1
     7    14    15    1
     8    15    11    1
     9    11     5    1
    10     5     6   ar
    11     6     7   ar
    12     7     8   ar
    13     8     1    1
    14     1     2   am
    15     2     3    2
    16     2    22    1
    17    22    23   ar
    18    23    24   ar
    19    24    25   ar
    20    25    27    1
    21    27    29    1
    22    29    30   ar
    23    30    31   ar
    24    31    32   ar
    25    32    33    1
    26    32    34   ar
    27    34    35    1
    28    34    36   ar
    29    25    26   ar
    30     8     9   ar
    31     9    10   ar
    32    15    16    1
    33    16    17    1
    34    17    12    1
    35    10     5   ar
    36    26    22   ar
    37    36    29   ar
    38     1     4    1
    39    27    28    1
@<TRIPOS>MOLECULE
*****
 36 39 0 0 0
SMALL
GASTEIGER

@<TRIPOS>ATOM
      1 N         142.5297  143.8446  159.9835 N.am    1  UNL1       -0.2752
      2 C         141.4105  144.8391  159.8917 C.2     1  UNL1        0.3050
      3 O         140.6177  145.1911  161.1154 O.2     1  UNL1       -0.2646
      4 H         143.0500  143.6136  159.1803 H       1  UNL1        0.1554
      5 C         143.5090  141.9172  163.9301 C.ar    1  UNL1        0.2248
      6 C         144.4283  142.9521  163.3522 C.ar    1  UNL1        0.0590
      7 C         144.1018  143.5946  162.0367 C.ar    1  UNL1        0.0211
      8 C         142.8561  143.2021  161.2990 C.ar    1  UNL1        0.0703
      9 C         141.9368  142.1672  161.8769 C.ar    1  UNL1        0.1167
     10 N         142.2633  141.5247  163.1925 N.ar    1  UNL1       -0.2088
     11 O         143.8355  141.2747  165.2456 O.3     1  UNL1       -0.4640
     12 C         140.8802  141.4582  168.6342 C.3     1  UNL1        0.0058
     13 C         142.0455  142.4021  168.6034 C.3     1  UNL1        0.0041
     14 C         143.0306  142.3410  167.4739 C.3     1  UNL1        0.0436
     15 C         142.8504  141.3359  166.3752 C.3     1  UNL1        0.1675
     16 C         141.6851  140.3919  166.4060 C.3     1  UNL1        0.0436
     17 C         140.7000  140.4531  167.5355 C.3     1  UNL1        0.0041
     18 C         139.8950  141.5193  169.7637 C.3     1  UNL1        0.0417
     19 O         140.6150  142.1008  172.1914 O.co2   1  UNL1       -0.5492
     20 C         140.0723  142.5279  170.8598 C.2     1  UNL1        0.0503
     21 O         139.7071  143.9635  170.6242 O.co2   1  UNL1       -0.5492
     22 C         141.0841  145.4815  158.5762 C.ar    1  UNL1        0.3052
     23 N         142.0352  145.6849  157.4342 N.ar    1  UNL1       -0.1010
     24 N         141.2882  146.3625  156.3238 N.ar    1  UNL1       -0.0919
     25 C         139.8754  146.5779  156.7796 C.ar    1  UNL1        0.3126
     26 O         139.7493  146.0335  158.1716 O.2     1  UNL1       -0.4006
     27 N         138.7809  147.2243  155.9832 N.pl3   1  UNL1       -0.2664
     28 H         137.8843  146.8184  155.9587 H       1  UNL1        0.1566
     29 C         139.0524  148.4893  155.2241 C.ar    1  UNL1        0.0541
     30 C         139.8184  148.4409  153.9354 C.ar    1  UNL1        0.0172
     31 C         140.0899  149.7058  153.1764 C.ar    1  UNL1        0.0332
     32 C         139.5955  151.0192  153.7061 C.ar    1  UNL1        0.1675
     33 F         139.8671  152.2841  152.9469 F       1  UNL1       -0.2018
     34 C         138.8295  151.0676  154.9948 C.ar    1  UNL1        0.1686
     35 F         138.3351  152.3810  155.5246 F       1  UNL1       -0.2018
     36 C         138.5580  149.8027  155.7539 C.ar    1  UNL1        0.0467
@<TRIPOS>UNITY_ATOM_ATTR
19 1
charge -1
@<TRIPOS>BOND
     1    19    20   ar
     2    20    21   ar
     3    20    18    1
     4    12    18    1
     5    12    13    1
     6    13    14    1
     7    14    15    1
     8    15    11    1
     9    11     5    1
    10     5     6   ar
    11     6     7   ar
    12     7     8   ar
    13     8     1    1
    14     1     2   am
    15     2     3    2
    16     2    22    1
    17    22    23   ar
    18    23    24   ar
    19    24    25   ar
    20    25    27    1
    21    27    29    1
    22    29    30   ar
    23    30    31   ar
    24    31    32   ar
    25    32    33    1
    26    32    34   ar
    27    34    35    1
    28    34    36   ar
    29    25    26   ar
    30     8     9   ar
    31     9    10   ar
    32    15    16    1
    33    16    17    1
    34    17    12    1
    35    10     5   ar
    36    26    22   ar
    37    36    29   ar
    38     1     4    1
    39    27    28    1
@<TRIPOS>MOLECULE
*****
 36 39 0 0 0
SMALL
GASTEIGER

@<TRIPOS>ATOM
      1 N         140.7204  138.0927  159.8874 N.am    1  UNL1       -0.2752
      2 C         141.9978  138.7687  159.4859 C.2     1  UNL1        0.3050
      3 O         142.6302  139.7788  160.3969 O.2     1  UNL1       -0.2646
      4 H         140.3053  137.4298  159.2895 H       1  UNL1        0.1554
      5 C         138.7853  139.0947  163.8247 C.ar    1  UNL1        0.2248
      6 C         140.0245  138.2500  163.7914 C.ar    1  UNL1        0.0590
      7 C         140.6695  137.9161  162.4790 C.ar    1  UNL1        0.0211
      8 C         140.0753  138.4267  161.1998 C.ar    1  UNL1        0.0703
      9 C         138.8362  139.2714  161.2331 C.ar    1  UNL1        0.1167
     10 N         138.1912  139.6054  162.5455 N.ar    1  UNL1       -0.2088
     11 O         138.1404  139.4287  165.1371 O.3     1  UNL1       -0.4640
     12 C         140.4811  141.6042  168.3054 C.3     1  UNL1        0.0058
     13 C         139.8676  140.2697  168.6098 C.3     1  UNL1        0.0041
     14 C         139.0873  139.5445  167.5536 C.3     1  UNL1        0.0436
     15 C         138.9206  140.1539  166.1932 C.3     1  UNL1        0.1675
     16 C         139.5341  141.4884  165.8889 C.3     1  UNL1        0.0436
     17 C         140.3144  142.2135  166.9450 C.3     1  UNL1        0.0041
     18 C         141.2613  142.3293  169.3615 C.3     1  UNL1        0.0417
     19 O         139.8551  144.2573  170.3889 O.co2   1  UNL1       -0.5492
     20 C         140.5508  142.9364  170.5348 C.2     1  UNL1        0.0503
     21 O         140.5361  142.2226  171.8540 O.co2   1  UNL1       -0.5492
     22 C         142.6427  138.4347  158.1736 C.ar    1  UNL1        0.3052
     23 N         143.6926  139.2470  157.4750 N.ar    1  UNL1       -0.1010
     24 N         144.0498  138.5441  156.1990 N.ar    1  UNL1       -0.0919
     25 C         143.2207  137.2973  156.1089 C.ar    1  UNL1        0.3126
     26 O         142.3511  137.2297  157.3293 O.2     1  UNL1       -0.4006
     27 N         143.2551  136.2942  154.9942 N.pl3   1  UNL1       -0.2664
     28 H         143.4637  136.5846  154.0769 H       1  UNL1        0.1566
     29 C         142.9718  134.8486  155.2770 C.ar    1  UNL1        0.0541
     30 C         143.7325  134.1317  156.3528 C.ar    1  UNL1        0.0172
     31 C         143.4491  132.6862  156.6356 C.ar    1  UNL1        0.0332
     32 C         142.4051  131.9575  155.8427 C.ar    1  UNL1        0.1675
     33 F         142.1218  130.5118  156.1256 F       1  UNL1       -0.2018
     34 C         141.6443  132.6743  154.7669 C.ar    1  UNL1        0.1686
     35 F         140.6002  131.9455  153.9739 F       1  UNL1       -0.2018
     36 C         141.9276  134.1199  154.4841 C.ar    1  UNL1        0.0467
@<TRIPOS>UNITY_ATOM_ATTR
19 1
charge -1
@<TRIPOS>BOND
     1    19    20   ar
     2    20    21   ar
     3    20    18    1
     4    12    18    1
     5    12    13    1
     6    13    14    1
     7    14    15    1
     8    15    11    1
     9    11     5    1
    10     5     6   ar
    11     6     7   ar
    12     7     8   ar
    13     8     1    1
    14     1     2   am
    15     2     3    2
    16     2    22    1
    17    22    23   ar
    18    23    24   ar
    19    24    25   ar
    20    25    27    1
    21    27    29    1
    22    29    30   ar
    23    30    31   ar
    24    31    32   ar
    25    32    33    1
    26    32    34   ar
    27    34    35    1
    28    34    36   ar
    29    25    26   ar
    30     8     9   ar
    31     9    10   ar
    32    15    16    1
    33    16    17    1
    34    17    12    1
    35    10     5   ar
    36    26    22   ar
    37    36    29   ar
    38     1     4    1
    39    27    28    1
@<TRIPOS>MOLECULE
*****
 36 39 0 0 0
SMALL
GASTEIGER

@<TRIPOS>ATOM
      1 N         139.3375  139.0250  159.3310 N.am    1  UNL1       -0.2752
      2 C         138.4553  140.2172  159.1065 C.2     1  UNL1        0.3050
      3 O         138.1771  141.1672  160.2335 O.2     1  UNL1       -0.2646
      4 H         139.5201  138.4015  158.5914 H       1  UNL1        0.1554
      5 C         141.1494  138.2984  163.3857 C.ar    1  UNL1        0.2248
      6 C         139.8041  137.7250  163.0516 C.ar    1  UNL1        0.0590
      7 C         139.2002  137.9672  161.7001 C.ar    1  UNL1        0.0211
      8 C         139.9415  138.7828  160.6826 C.ar    1  UNL1        0.0703
      9 C         141.2867  139.3562  161.0166 C.ar    1  UNL1        0.1167
     10 N         141.8906  139.1140  162.3682 N.ar    1  UNL1       -0.2088
     11 O         141.7533  138.0562  164.7371 O.3     1  UNL1       -0.4640
     12 C         140.7950  140.8188  168.1577 C.3     1  UNL1        0.0058
     13 C         139.7380  140.4793  167.1490 C.3     1  UNL1        0.0041
     14 C         140.0574  139.5584  166.0089 C.3     1  UNL1        0.0436
     15 C         141.4339  138.9770  165.8773 C.3     1  UNL1        0.1675
     16 C         142.4909  139.3166  166.8859 C.3     1  UNL1        0.0436
     17 C         142.1715  140.2374  168.0261 C.3     1  UNL1        0.0041
     18 C         140.4756  141.7396  169.2978 C.3     1  UNL1        0.0417
     19 O         139.5600  139.8247  170.7961 O.co2   1  UNL1       -0.5492
     20 C         140.1937  141.1775  170.6596 C.2     1  UNL1        0.0503
     21 O         140.5456  141.9679  171.8849 O.co2   1  UNL1       -0.5492
     22 C         137.8514  140.4593  157.7550 C.ar    1  UNL1        0.3052
     23 N         138.6002  140.5527  156.4586 N.ar    1  UNL1       -0.1010
     24 N         137.6042  140.8017  155.3649 N.ar    1  UNL1       -0.0919
     25 C         136.2399  140.8622  155.9855 C.ar    1  UNL1        0.3126
     26 O         136.3927  140.6506  157.4626 O.2     1  UNL1       -0.4006
     27 N         134.9493  141.0936  155.2568 N.pl3   1  UNL1       -0.2664
     28 H         134.9344  141.6553  154.4484 H       1  UNL1        0.1566
     29 C         133.6816  140.4693  155.7598 C.ar    1  UNL1        0.0541
     30 C         133.7063  139.0882  156.3444 C.ar    1  UNL1        0.0172
     31 C         132.4386  138.4639  156.8474 C.ar    1  UNL1        0.0332
     32 C         131.1462  139.2206  156.7659 C.ar    1  UNL1        0.1675
     33 F         129.8784  138.5962  157.2689 F       1  UNL1       -0.2018
     34 C         131.1214  140.6018  156.1813 C.ar    1  UNL1        0.1686
     35 F         129.8289  141.3587  156.0998 F       1  UNL1       -0.2018
     36 C         132.3891  141.2262  155.6783 C.ar    1  UNL1        0.0467
@<TRIPOS>UNITY_ATOM_ATTR
19 1
charge -1
@<TRIPOS>BOND
     1    19    20   ar
     2    20    21   ar
     3    20    18    1
     4    12    18    1
     5    12    13    1
     6    13    14    1
     7    14    15    1
     8    15    11    1
     9    11     5    1
    10     5     6   ar
    11     6     7   ar
    12     7     8   ar
    13     8     1    1
    14     1     2   am
    15     2     3    2
    16     2    22    1
    17    22    23   ar
    18    23    24   ar
    19    24    25   ar
    20    25    27    1
    21    27    29    1
    22    29    30   ar
    23    30    31   ar
    24    31    32   ar
    25    32    33    1
    26    32    34   ar
    27    34    35    1
    28    34    36   ar
    29    25    26   ar
    30     8     9   ar
    31     9    10   ar
    32    15    16    1
    33    16    17    1
    34    17    12    1
    35    10     5   ar
    36    26    22   ar
    37    36    29   ar
    38     1     4    1
    39    27    28    1
@<TRIPOS>MOLECULE
*****
 36 39 0 0 0
SMALL
GASTEIGER

@<TRIPOS>ATOM
      1 N         142.2629  137.7544  160.1954 N.am    1  UNL1       -0.2752
      2 C         142.5732  138.1086  158.7713 C.2     1  UNL1        0.3050
      3 O         143.1815  139.4404  158.4451 O.2     1  UNL1       -0.2646
      4 H         141.8637  136.8803  160.4095 H       1  UNL1        0.1554
      5 C         143.1572  140.6870  163.4895 C.ar    1  UNL1        0.2248
      6 C         144.2195  139.7363  163.0229 C.ar    1  UNL1        0.0590
      7 C         143.9214  138.7588  161.9249 C.ar    1  UNL1        0.0211
      8 C         142.5610  138.7320  161.2935 C.ar    1  UNL1        0.0703
      9 C         141.4987  139.6827  161.7600 C.ar    1  UNL1        0.1167
     10 N         141.7968  140.6602  162.8581 N.ar    1  UNL1       -0.2088
     11 O         143.4553  141.6645  164.5875 O.3     1  UNL1       -0.4640
     12 C         142.6590  140.5463  168.8730 C.3     1  UNL1        0.0058
     13 C         142.6410  139.4913  167.8068 C.3     1  UNL1        0.0041
     14 C         142.9064  139.8641  166.3783 C.3     1  UNL1        0.0436
     15 C         143.1899  141.2917  166.0160 C.3     1  UNL1        0.1675
     16 C         143.2079  142.3467  167.0821 C.3     1  UNL1        0.0436
     17 C         142.9425  141.9739  168.5106 C.3     1  UNL1        0.0041
     18 C         142.3936  140.1735  170.3015 C.3     1  UNL1        0.0417
     19 O         141.6426  142.1394  171.8251 O.co2   1  UNL1       -0.5492
     20 C         141.3205  140.8813  171.0743 C.2     1  UNL1        0.0503
     21 O         139.9252  140.3312  171.0964 O.co2   1  UNL1       -0.5492
     22 C         142.2751  137.1311  157.6733 C.ar    1  UNL1        0.3052
     23 N         141.1222  137.2044  156.7165 N.ar    1  UNL1       -0.1010
     24 N         141.2121  136.0273  155.7912 N.ar    1  UNL1       -0.0919
     25 C         142.4207  135.2264  156.1762 C.ar    1  UNL1        0.3126
     26 O         143.0776  135.9086  157.3394 O.2     1  UNL1       -0.4006
     27 N         142.8899  133.9648  155.5142 N.pl3   1  UNL1       -0.2664
     28 H         142.8259  133.8687  154.5365 H       1  UNL1        0.1566
     29 C         143.4565  132.8495  156.3419 C.ar    1  UNL1        0.0541
     30 C         144.6974  133.0740  157.1541 C.ar    1  UNL1        0.0172
     31 C         145.2640  131.9587  157.9818 C.ar    1  UNL1        0.0332
     32 C         144.5899  130.6190  157.9972 C.ar    1  UNL1        0.1675
     33 F         145.1566  129.5037  158.8249 F       1  UNL1       -0.2018
     34 C         143.3490  130.3944  157.1850 C.ar    1  UNL1        0.1686
     35 F         142.6747  129.0545  157.2004 F       1  UNL1       -0.2018
     36 C         142.7823  131.5096  156.3573 C.ar    1  UNL1        0.0467
@<TRIPOS>UNITY_ATOM_ATTR
19 1
charge -1
@<TRIPOS>BOND
     1    19    20   ar
     2    20    21   ar
     3    20    18    1
     4    12    18    1
     5    12    13    1
     6    13    14    1
     7    14    15    1
     8    15    11    1
     9    11     5    1
    10     5     6   ar
    11     6     7   ar
    12     7     8   ar
    13     8     1    1
    14     1     2   am
    15     2     3    2
    16     2    22    1
    17    22    23   ar
    18    23    24   ar
    19    24    25   ar
    20    25    27    1
    21    27    29    1
    22    29    30   ar
    23    30    31   ar
    24    31    32   ar
    25    32    33    1
    26    32    34   ar
    27    34    35    1
    28    34    36   ar
    29    25    26   ar
    30     8     9   ar
    31     9    10   ar
    32    15    16    1
    33    16    17    1
    34    17    12    1
    35    10     5   ar
    36    26    22   ar
    37    36    29   ar
    38     1     4    1
    39    27    28    1
@<TRIPOS>MOLECULE
*****
 36 39 0 0 0
SMALL
GASTEIGER

@<TRIPOS>ATOM
      1 N         139.6147  138.1368  163.6215 N.am    1  UNL1       -0.2752
      2 C         139.0356  139.3084  164.3577 C.2     1  UNL1        0.3050
      3 O         138.8466  140.6185  163.6522 O.2     1  UNL1       -0.2646
      4 H         139.7387  137.2769  164.0846 H       1  UNL1        0.1554
      5 C         140.7847  138.5523  159.2961 C.ar    1  UNL1        0.2248
      6 C         139.3353  138.5155  159.6809 C.ar    1  UNL1        0.0590
      7 C         138.9453  138.3770  161.1226 C.ar    1  UNL1        0.0211
      8 C         140.0047  138.2753  162.1797 C.ar    1  UNL1        0.0703
      9 C         141.4540  138.3121  161.7950 C.ar    1  UNL1        0.1167
     10 N         141.8441  138.4506  160.3532 N.ar    1  UNL1       -0.2088
     11 O         141.1746  138.6908  157.8544 O.3     1  UNL1       -0.4640
     12 C         142.3110  135.0470  155.4708 C.3     1  UNL1        0.0058
     13 C         140.9559  135.6656  155.2950 C.3     1  UNL1        0.0041
     14 C         140.5771  136.8802  156.0895 C.3     1  UNL1        0.0436
     15 C         141.5534  137.4762  157.0599 C.3     1  UNL1        0.1675
     16 C         142.9085  136.8576  157.2357 C.3     1  UNL1        0.0436
     17 C         143.2873  135.6430  156.4411 C.3     1  UNL1        0.0041
     18 C         142.6898  133.8324  154.6763 C.3     1  UNL1        0.0417
     19 O         142.3883  132.2885  156.7440 O.co2   1  UNL1       -0.5492
     20 C         142.9505  132.5307  155.3745 C.2     1  UNL1        0.0503
     21 O         143.7733  131.4712  154.7034 O.co2   1  UNL1       -0.5492
     22 C         138.6456  139.1698  165.7995 C.ar    1  UNL1        0.3052
     23 N         137.6205  138.2223  166.3484 N.ar    1  UNL1       -0.1010
     24 N         137.5536  138.4213  167.8336 N.ar    1  UNL1       -0.0919
     25 C         138.5374  139.4919  168.2026 C.ar    1  UNL1        0.3126
     26 O         139.2123  139.9545  166.9454 O.2     1  UNL1       -0.4006
     27 N         138.8001  140.0091  169.5859 N.pl3   1  UNL1       -0.2664
     28 H         138.1715  139.8046  170.3155 H       1  UNL1        0.1566
     29 C         140.0205  140.8379  169.8575 C.ar    1  UNL1        0.0541
     30 C         139.9359  142.3348  169.8123 C.ar    1  UNL1        0.0172
     31 C         141.1562  143.1635  170.0839 C.ar    1  UNL1        0.0332
     32 C         142.4612  142.4954  170.4008 C.ar    1  UNL1        0.1675
     33 F         143.6816  143.3243  170.6725 F       1  UNL1       -0.2018
     34 C         142.5459  140.9985  170.4461 C.ar    1  UNL1        0.1686
     35 F         143.8510  140.3303  170.7630 F       1  UNL1       -0.2018
     36 C         141.3255  140.1697  170.1744 C.ar    1  UNL1        0.0467
@<TRIPOS>UNITY_ATOM_ATTR
19 1
charge -1
@<TRIPOS>BOND
     1    19    20   ar
     2    20    21   ar
     3    20    18    1
     4    12    18    1
     5    12    13    1
     6    13    14    1
     7    14    15    1
     8    15    11    1
     9    11     5    1
    10     5     6   ar
    11     6     7   ar
    12     7     8   ar
    13     8     1    1
    14     1     2   am
    15     2     3    2
    16     2    22    1
    17    22    23   ar
    18    23    24   ar
    19    24    25   ar
    20    25    27    1
    21    27    29    1
    22    29    30   ar
    23    30    31   ar
    24    31    32   ar
    25    32    33    1
    26    32    34   ar
    27    34    35    1
    28    34    36   ar
    29    25    26   ar
    30     8     9   ar
    31     9    10   ar
    32    15    16    1
    33    16    17    1
    34    17    12    1
    35    10     5   ar
    36    26    22   ar
    37    36    29   ar
    38     1     4    1
    39    27    28    1
