@<TRIPOS>MOLECULE
*****
 38 44 0 0 0
SMALL
GASTEIGER

@<TRIPOS>ATOM
      1 C         138.5013  141.8097  164.4179 C.3     1  UNL1        0.0955
      2 C         138.9367  143.0777  165.0909 C.3     1  UNL1        0.0287
      3 C         138.9324  144.3704  164.3300 C.3     1  UNL1        0.0193
      4 C         138.4928  144.3952  162.8961 C.3     1  UNL1        0.0700
      5 C         138.0575  143.1273  162.2231 C.3     1  UNL1        0.0193
      6 C         138.0618  141.8345  162.9839 C.3     1  UNL1        0.0287
      7 C         138.4782  143.6627  163.2721 C.3     1  UNL1        0.1562
      8 O         138.4820  142.4939  163.9601 O.3     1  UNL1       -0.3571
      9 N         138.4886  145.6878  162.1352 N.3     1  UNL1       -0.2926
     10 H         138.2304  146.4188  162.7980 H       1  UNL1        0.1236
     11 C         139.7339  146.1533  161.4407 C.3     1  UNL1        0.1152
     12 C         140.8954  145.2183  161.2768 C.ar    1  UNL1        0.0782
     13 C         141.1935  144.6209  159.9336 C.ar    1  UNL1        0.0195
     14 C         142.3550  143.6859  159.7697 C.ar    1  UNL1        0.0430
     15 C         143.2183  143.3483  160.9490 C.ar    1  UNL1        0.1916
     16 C         142.9201  143.9457  162.2922 C.ar    1  UNL1        0.2598
     17 N         141.7587  144.8807  162.4561 N.ar    1  UNL1       -0.2121
     18 O         143.7834  143.6082  163.4716 O.3     1  UNL1       -0.4541
     19 C         144.9448  142.6732  163.3076 C.3     1  UNL1        0.2543
     20 C         145.2430  142.0758  161.9645 C.3     1  UNL1        0.2528
     21 O         144.3797  142.4133  160.7851 O.3     1  UNL1       -0.4667
     22 C         138.5056  140.5170  165.1788 C.3     1  UNL1        0.0604
     23 O         138.8348  140.8874  170.2814 O.2     1  UNL1       -0.2670
     24 C         140.0543  140.2732  169.6605 C.ar    1  UNL1        0.2611
     25 C         141.2012  139.8432  170.5264 C.ar    1  UNL1        0.0623
     26 C         142.4207  139.2291  169.9054 C.ar    1  UNL1        0.0254
     27 C         142.4934  139.0450  168.4186 C.ar    1  UNL1        0.0972
     28 N         143.5707  138.4686  167.5368 N.ar    1  UNL1       -0.2400
     29 C         143.5002  138.3485  166.0433 C.ar    1  UNL1        0.1282
     30 C         142.2817  138.8244  165.3093 C.ar    1  UNL1        0.1588
     31 F         142.2112  138.7043  163.8158 F       1  UNL1       -0.2027
     32 C         141.1336  139.4203  166.0689 C.ar    1  UNL1        0.0500
     33 C         141.3466  139.4750  167.5527 C.ar    1  UNL1        0.0806
     34 N         140.1271  140.0891  168.1736 N.ar    1  UNL1       -0.2915
     35 C         139.1604  140.4140  167.0735 C.3     1  UNL1        0.1402
     36 C         139.7825  140.0006  165.7727 C.3     1  UNL1        0.1335
     37 O         140.1377  139.6952  164.3478 O.3     1  UNL1       -0.3806
     38 H         139.4087  139.9655  163.7678 H       1  UNL1        0.2108
@<TRIPOS>BOND
     1    23    24    2
     2    24    25   ar
     3    25    26   ar
     4    26    27   ar
     5    27    28   ar
     6    28    29   ar
     7    29    30   ar
     8    30    31    1
     9    30    32   ar
    10    32    33   ar
    11    33    34   ar
    12    34    35    1
    13    35    36    1
    14    36    37    1
    15    36    22    1
    16    22     1    1
    17     1     2    1
    18     2     3    1
    19     3     4    1
    20     4     9    1
    21     9    11    1
    22    11    12    1
    23    12    13   ar
    24    13    14   ar
    25    14    15   ar
    26    15    16   ar
    27    16    17   ar
    28    16    18    1
    29    18    19    1
    30    19    20    1
    31    20    21    1
    32     4     5    1
    33     5     6    1
    34     4     7    1
    35     7     8    1
    36    34    24   ar
    37     6     1    1
    38    33    27   ar
    39     8     1    1
    40    36    32    1
    41    17    12   ar
    42    21    15    1
    43    37    38    1
    44     9    10    1
@<TRIPOS>MOLECULE
*****
 38 44 0 0 0
SMALL
GASTEIGER

@<TRIPOS>ATOM
      1 C         138.7530  138.9681  164.1626 C.3     1  UNL1        0.0955
      2 C         138.1340  140.2922  163.8250 C.3     1  UNL1        0.0287
      3 C         137.6008  140.5407  162.4452 C.3     1  UNL1        0.0193
      4 C         137.6865  139.4653  161.4030 C.3     1  UNL1        0.0700
      5 C         138.3055  138.1414  161.7406 C.3     1  UNL1        0.0193
      6 C         138.8387  137.8927  163.1205 C.3     1  UNL1        0.0287
      7 C         137.9924  139.2825  162.1454 C.3     1  UNL1        0.1562
      8 O         138.4745  139.0577  163.3930 O.3     1  UNL1       -0.3571
      9 N         137.1533  139.7139  160.0232 N.3     1  UNL1       -0.2926
     10 H         136.3476  140.3310  160.1256 H       1  UNL1        0.1236
     11 C         138.0369  140.3254  158.9767 C.3     1  UNL1        0.1152
     12 C         139.3293  139.6611  158.6047 C.ar    1  UNL1        0.0782
     13 C         140.6183  140.1396  159.2043 C.ar    1  UNL1        0.0195
     14 C         141.9107  139.4753  158.8324 C.ar    1  UNL1        0.0430
     15 C         141.9142  138.3325  157.8609 C.ar    1  UNL1        0.1916
     16 C         140.6253  137.8540  157.2612 C.ar    1  UNL1        0.2598
     17 N         139.3328  138.5183  157.6331 N.ar    1  UNL1       -0.2121
     18 O         140.6287  136.7112  156.2897 O.3     1  UNL1       -0.4541
     19 C         141.9211  136.0469  155.9178 C.3     1  UNL1        0.2543
     20 C         143.2101  136.5254  156.5173 C.3     1  UNL1        0.2528
     21 O         143.2067  137.6682  157.4890 O.3     1  UNL1       -0.4667
     22 C         139.2862  138.7195  165.5425 C.3     1  UNL1        0.0604
     23 O         138.1311  140.1006  170.3425 O.2     1  UNL1       -0.2670
     24 C         139.3726  140.7654  169.8262 C.ar    1  UNL1        0.2611
     25 C         140.1302  141.7211  170.6995 C.ar    1  UNL1        0.0623
     26 C         141.3717  142.3859  170.1832 C.ar    1  UNL1        0.0254
     27 C         141.8558  142.0950  168.7936 C.ar    1  UNL1        0.0972
     28 N         143.0467  142.6062  168.0251 N.ar    1  UNL1       -0.2400
     29 C         143.4075  142.2191  166.6216 C.ar    1  UNL1        0.1282
     30 C         142.5499  141.2460  165.8681 C.ar    1  UNL1        0.1588
     31 F         142.9106  140.8589  164.4645 F       1  UNL1       -0.2027
     32 C         141.3316  140.6601  166.5182 C.ar    1  UNL1        0.0500
     33 C         141.0982  141.1393  167.9203 C.ar    1  UNL1        0.0806
     34 N         139.8566  140.4745  168.4366 N.ar    1  UNL1       -0.2915
     35 C         139.3228  139.5845  167.3536 C.3     1  UNL1        0.1402
     36 C         140.2344  139.6992  166.1679 C.3     1  UNL1        0.1335
     37 O         140.9478  139.6092  164.8515 O.3     1  UNL1       -0.3806
     38 H         140.4746  138.9949  164.2687 H       1  UNL1        0.2108
@<TRIPOS>BOND
     1    23    24    2
     2    24    25   ar
     3    25    26   ar
     4    26    27   ar
     5    27    28   ar
     6    28    29   ar
     7    29    30   ar
     8    30    31    1
     9    30    32   ar
    10    32    33   ar
    11    33    34   ar
    12    34    35    1
    13    35    36    1
    14    36    37    1
    15    36    22    1
    16    22     1    1
    17     1     2    1
    18     2     3    1
    19     3     4    1
    20     4     9    1
    21     9    11    1
    22    11    12    1
    23    12    13   ar
    24    13    14   ar
    25    14    15   ar
    26    15    16   ar
    27    16    17   ar
    28    16    18    1
    29    18    19    1
    30    19    20    1
    31    20    21    1
    32     4     5    1
    33     5     6    1
    34     4     7    1
    35     7     8    1
    36    34    24   ar
    37     6     1    1
    38    33    27   ar
    39     8     1    1
    40    36    32    1
    41    17    12   ar
    42    21    15    1
    43    37    38    1
    44     9    10    1
@<TRIPOS>MOLECULE
*****
 38 44 0 0 0
SMALL
GASTEIGER

@<TRIPOS>ATOM
      1 C         138.5317  141.8102  164.4313 C.3     1  UNL1        0.0955
      2 C         138.1332  141.8080  162.9851 C.3     1  UNL1        0.0287
      3 C         138.1363  143.0889  162.2044 C.3     1  UNL1        0.0193
      4 C         138.5378  144.3718  162.8698 C.3     1  UNL1        0.0700
      5 C         138.9363  144.3740  164.3159 C.3     1  UNL1        0.0193
      6 C         138.9332  143.0932  165.0967 C.3     1  UNL1        0.0287
      7 C         138.5517  143.6950  163.3386 C.3     1  UNL1        0.1562
      8 O         138.5489  142.5369  164.0446 O.3     1  UNL1       -0.3571
      9 N         138.5409  145.6527  162.0891 N.3     1  UNL1       -0.2926
     10 H         138.1618  146.3730  162.7037 H       1  UNL1        0.1236
     11 C         139.8269  146.1896  161.5343 C.3     1  UNL1        0.1152
     12 C         140.8976  145.2452  161.0743 C.ar    1  UNL1        0.0782
     13 C         141.8717  144.6767  162.0632 C.ar    1  UNL1        0.0195
     14 C         142.9425  143.7323  161.6033 C.ar    1  UNL1        0.0430
     15 C         143.0391  143.3563  160.1544 C.ar    1  UNL1        0.1916
     16 C         142.0650  143.9247  159.1655 C.ar    1  UNL1        0.2598
     17 N         140.9943  144.8692  159.6254 N.ar    1  UNL1       -0.2121
     18 O         142.1616  143.5488  157.7166 O.3     1  UNL1       -0.4541
     19 C         143.2323  142.6044  157.2566 C.3     1  UNL1        0.2543
     20 C         144.2064  142.0359  158.2455 C.3     1  UNL1        0.2528
     21 O         144.1098  142.4118  159.6944 O.3     1  UNL1       -0.4667
     22 C         138.5286  140.5294  165.2120 C.3     1  UNL1        0.0604
     23 O         138.8572  140.9433  170.3114 O.2     1  UNL1       -0.2670
     24 C         140.0745  140.3189  169.6964 C.ar    1  UNL1        0.2611
     25 C         141.2193  139.8919  170.5665 C.ar    1  UNL1        0.0623
     26 C         142.4366  139.2675  169.9515 C.ar    1  UNL1        0.0254
     27 C         142.5092  139.0701  168.4664 C.ar    1  UNL1        0.0972
     28 N         143.5846  138.4816  167.5902 N.ar    1  UNL1       -0.2400
     29 C         143.5142  138.3487  166.0978 C.ar    1  UNL1        0.1282
     30 C         142.2979  138.8229  165.3591 C.ar    1  UNL1        0.1588
     31 F         142.2275  138.6900  163.8667 F       1  UNL1       -0.2027
     32 C         141.1519  139.4301  166.1129 C.ar    1  UNL1        0.0500
     33 C         141.3645  139.4970  167.5962 C.ar    1  UNL1        0.0806
     34 N         140.1471  140.1214  168.2112 N.ar    1  UNL1       -0.2915
     35 C         139.1822  140.4404  167.1079 C.3     1  UNL1        0.1402
     36 C         139.8032  140.0131  165.8111 C.3     1  UNL1        0.1335
     37 O         140.1577  139.6938  164.3890 O.3     1  UNL1       -0.3806
     38 H         139.4301  139.9619  163.8063 H       1  UNL1        0.2108
@<TRIPOS>BOND
     1    23    24    2
     2    24    25   ar
     3    25    26   ar
     4    26    27   ar
     5    27    28   ar
     6    28    29   ar
     7    29    30   ar
     8    30    31    1
     9    30    32   ar
    10    32    33   ar
    11    33    34   ar
    12    34    35    1
    13    35    36    1
    14    36    37    1
    15    36    22    1
    16    22     1    1
    17     1     2    1
    18     2     3    1
    19     3     4    1
    20     4     9    1
    21     9    11    1
    22    11    12    1
    23    12    13   ar
    24    13    14   ar
    25    14    15   ar
    26    15    16   ar
    27    16    17   ar
    28    16    18    1
    29    18    19    1
    30    19    20    1
    31    20    21    1
    32     4     5    1
    33     5     6    1
    34     4     7    1
    35     7     8    1
    36    34    24   ar
    37     6     1    1
    38    33    27   ar
    39     8     1    1
    40    36    32    1
    41    17    12   ar
    42    21    15    1
    43    37    38    1
    44     9    10    1
@<TRIPOS>MOLECULE
*****
 38 44 0 0 0
SMALL
GASTEIGER

@<TRIPOS>ATOM
      1 C         138.2894  141.6510  164.7526 C.3     1  UNL1        0.0955
      2 C         139.1961  142.5729  165.5131 C.3     1  UNL1        0.0287
      3 C         140.0571  142.0353  166.6175 C.3     1  UNL1        0.0193
      4 C         140.0114  140.5760  166.9616 C.3     1  UNL1        0.0700
      5 C         139.1047  139.6543  166.2012 C.3     1  UNL1        0.0193
      6 C         138.2436  140.1917  165.0967 C.3     1  UNL1        0.0287
      7 C         139.5211  140.8243  166.3483 C.3     1  UNL1        0.1562
      8 O         138.7426  141.3103  165.3497 O.3     1  UNL1       -0.3571
      9 N         140.8723  140.0385  168.0660 N.3     1  UNL1       -0.2926
     10 H         140.4150  139.1949  168.4119 H       1  UNL1        0.1236
     11 C         142.3019  139.6753  167.7933 C.3     1  UNL1        0.1152
     12 C         142.8766  139.8699  166.4215 C.ar    1  UNL1        0.0782
     13 C         143.0752  138.6896  165.5173 C.ar    1  UNL1        0.0195
     14 C         143.6499  138.8841  164.1455 C.ar    1  UNL1        0.0430
     15 C         144.0260  140.2588  163.6778 C.ar    1  UNL1        0.1916
     16 C         143.8274  141.4391  164.5820 C.ar    1  UNL1        0.2598
     17 N         143.2527  141.2446  165.9538 N.ar    1  UNL1       -0.2121
     18 O         144.2034  142.8138  164.1144 O.3     1  UNL1       -0.4541
     19 C         144.7781  143.0083  162.7426 C.3     1  UNL1        0.2543
     20 C         144.9767  141.8281  161.8384 C.3     1  UNL1        0.2528
     21 O         144.6007  140.4533  162.3060 O.3     1  UNL1       -0.4667
     22 C         137.4284  142.1886  163.6482 C.3     1  UNL1        0.0604
     23 O         140.3055  146.1376  162.0958 O.2     1  UNL1       -0.2670
     24 C         140.0931  145.1120  161.0220 C.ar    1  UNL1        0.2611
     25 C         140.7005  145.3101  159.6650 C.ar    1  UNL1        0.0623
     26 C         140.4881  144.2845  158.5912 C.ar    1  UNL1        0.0254
     27 C         139.6681  143.0608  158.8745 C.ar    1  UNL1        0.0972
     28 N         139.2949  141.8876  158.0057 N.ar    1  UNL1       -0.2400
     29 C         138.4556  140.7206  158.4342 C.ar    1  UNL1        0.1282
     30 C         137.9137  140.6594  159.8315 C.ar    1  UNL1        0.1588
     31 F         137.0744  139.4923  160.2600 F       1  UNL1       -0.2027
     32 C         138.2112  141.7651  160.8005 C.ar    1  UNL1        0.0500
     33 C         139.0607  142.8628  160.2315 C.ar    1  UNL1        0.0806
     34 N         139.2731  143.8883  161.3053 N.ar    1  UNL1       -0.2915
     35 C         138.5550  143.4245  162.5379 C.3     1  UNL1        0.1402
     36 C         137.8987  142.1123  162.2259 C.3     1  UNL1        0.1335
     37 O         137.1440  140.8161  162.2112 O.3     1  UNL1       -0.3806
     38 H         136.7414  140.6664  163.0809 H       1  UNL1        0.2108
@<TRIPOS>BOND
     1    23    24    2
     2    24    25   ar
     3    25    26   ar
     4    26    27   ar
     5    27    28   ar
     6    28    29   ar
     7    29    30   ar
     8    30    31    1
     9    30    32   ar
    10    32    33   ar
    11    33    34   ar
    12    34    35    1
    13    35    36    1
    14    36    37    1
    15    36    22    1
    16    22     1    1
    17     1     2    1
    18     2     3    1
    19     3     4    1
    20     4     9    1
    21     9    11    1
    22    11    12    1
    23    12    13   ar
    24    13    14   ar
    25    14    15   ar
    26    15    16   ar
    27    16    17   ar
    28    16    18    1
    29    18    19    1
    30    19    20    1
    31    20    21    1
    32     4     5    1
    33     5     6    1
    34     4     7    1
    35     7     8    1
    36    34    24   ar
    37     6     1    1
    38    33    27   ar
    39     8     1    1
    40    36    32    1
    41    17    12   ar
    42    21    15    1
    43    37    38    1
    44     9    10    1
@<TRIPOS>MOLECULE
*****
 38 44 0 0 0
SMALL
GASTEIGER

@<TRIPOS>ATOM
      1 C         141.9644  143.0929  165.0747 C.3     1  UNL1        0.0955
      2 C         142.5888  141.8386  165.6106 C.3     1  UNL1        0.0287
      3 C         141.7700  140.8825  166.4262 C.3     1  UNL1        0.0193
      4 C         140.3268  141.1805  166.7060 C.3     1  UNL1        0.0700
      5 C         139.7024  142.4347  166.1701 C.3     1  UNL1        0.0193
      6 C         140.5212  143.3909  165.3544 C.3     1  UNL1        0.0287
      7 C         140.7353  141.7346  166.2541 C.3     1  UNL1        0.1562
      8 O         141.4757  142.5991  165.5166 O.3     1  UNL1       -0.3571
      9 N         139.5079  140.2244  167.5216 N.3     1  UNL1       -0.2926
     10 H         138.8943  140.7890  168.1090 H       1  UNL1        0.1236
     11 C         138.6401  139.2089  166.8392 C.3     1  UNL1        0.1152
     12 C         138.8295  138.9203  165.3794 C.ar    1  UNL1        0.0782
     13 C         139.7113  137.7863  164.9474 C.ar    1  UNL1        0.0195
     14 C         139.9007  137.4976  163.4877 C.ar    1  UNL1        0.0430
     15 C         139.2083  138.3428  162.4600 C.ar    1  UNL1        0.1916
     16 C         138.3265  139.4768  162.8920 C.ar    1  UNL1        0.2598
     17 N         138.1371  139.7655  164.3517 N.ar    1  UNL1       -0.2121
     18 O         137.6342  140.3220  161.8644 O.3     1  UNL1       -0.4541
     19 C         137.8236  140.0333  160.4047 C.3     1  UNL1        0.2543
     20 C         138.7053  138.8994  159.9726 C.3     1  UNL1        0.2528
     21 O         139.3977  138.0541  161.0003 O.3     1  UNL1       -0.4667
     22 C         142.7833  144.0490  164.2590 C.3     1  UNL1        0.0604
     23 O         139.2935  146.2902  161.2455 O.2     1  UNL1       -0.2670
     24 C         140.3187  145.5130  160.4740 C.ar    1  UNL1        0.2611
     25 C         140.2466  145.4564  158.9769 C.ar    1  UNL1        0.0623
     26 C         141.2717  144.6793  158.2054 C.ar    1  UNL1        0.0254
     27 C         142.3690  143.9587  158.9312 C.ar    1  UNL1        0.0972
     28 N         143.5127  143.1172  158.4271 N.ar    1  UNL1       -0.2400
     29 C         144.5465  142.4509  159.2858 C.ar    1  UNL1        0.1282
     30 C         144.4901  142.5975  160.7775 C.ar    1  UNL1        0.1588
     31 F         145.5238  141.9312  161.6362 F       1  UNL1       -0.2027
     32 C         143.4000  143.4105  161.4106 C.ar    1  UNL1        0.0500
     33 C         142.4411  144.0153  160.4283 C.ar    1  UNL1        0.0806
     34 N         141.4159  144.7924  161.1997 N.ar    1  UNL1       -0.2915
     35 C         141.7413  144.6680  162.6587 C.3     1  UNL1        0.1402
     36 C         142.9675  143.8139  162.7891 C.3     1  UNL1        0.1335
     37 O         144.1552  143.0090  163.2266 O.3     1  UNL1       -0.3806
     38 H         144.2222  143.0312  164.1940 H       1  UNL1        0.2108
@<TRIPOS>BOND
     1    23    24    2
     2    24    25   ar
     3    25    26   ar
     4    26    27   ar
     5    27    28   ar
     6    28    29   ar
     7    29    30   ar
     8    30    31    1
     9    30    32   ar
    10    32    33   ar
    11    33    34   ar
    12    34    35    1
    13    35    36    1
    14    36    37    1
    15    36    22    1
    16    22     1    1
    17     1     2    1
    18     2     3    1
    19     3     4    1
    20     4     9    1
    21     9    11    1
    22    11    12    1
    23    12    13   ar
    24    13    14   ar
    25    14    15   ar
    26    15    16   ar
    27    16    17   ar
    28    16    18    1
    29    18    19    1
    30    19    20    1
    31    20    21    1
    32     4     5    1
    33     5     6    1
    34     4     7    1
    35     7     8    1
    36    34    24   ar
    37     6     1    1
    38    33    27   ar
    39     8     1    1
    40    36    32    1
    41    17    12   ar
    42    21    15    1
    43    37    38    1
    44     9    10    1
@<TRIPOS>MOLECULE
*****
 38 44 0 0 0
SMALL
GASTEIGER

@<TRIPOS>ATOM
      1 C         138.3983  139.3864  164.8515 C.3     1  UNL1        0.0955
      2 C         137.7532  140.7387  164.7785 C.3     1  UNL1        0.0287
      3 C         137.4677  141.3624  163.4445 C.3     1  UNL1        0.0193
      4 C         137.8274  140.6339  162.1836 C.3     1  UNL1        0.0700
      5 C         138.4725  139.2817  162.2566 C.3     1  UNL1        0.0193
      6 C         138.7579  138.6579  163.5906 C.3     1  UNL1        0.0287
      7 C         138.0033  140.2517  162.8914 C.3     1  UNL1        0.1562
      8 O         138.2614  139.6878  164.0976 O.3     1  UNL1       -0.3571
      9 N         137.5419  141.2576  160.8496 N.3     1  UNL1       -0.2926
     10 H         136.6955  141.8159  160.9606 H       1  UNL1        0.1236
     11 C         138.5639  142.1445  160.2023 C.3     1  UNL1        0.1152
     12 C         139.4906  142.9642  161.0505 C.ar    1  UNL1        0.0782
     13 C         138.9654  144.1494  161.8052 C.ar    1  UNL1        0.0195
     14 C         139.8920  144.9691  162.6534 C.ar    1  UNL1        0.0430
     15 C         141.3438  144.6037  162.7470 C.ar    1  UNL1        0.1916
     16 C         141.8690  143.4185  161.9923 C.ar    1  UNL1        0.2598
     17 N         140.9424  142.5988  161.1441 N.ar    1  UNL1       -0.2121
     18 O         143.3207  143.0530  162.0859 O.3     1  UNL1       -0.4541
     19 C         144.2473  143.8727  162.9341 C.3     1  UNL1        0.2543
     20 C         143.7222  145.0578  163.6887 C.3     1  UNL1        0.2528
     21 O         142.2704  145.4234  163.5952 O.3     1  UNL1       -0.4667
     22 C         138.6837  138.7627  166.1855 C.3     1  UNL1        0.0604
     23 O         143.0994  141.0451  164.9305 O.2     1  UNL1       -0.2670
     24 C         142.6762  141.3278  166.3416 C.ar    1  UNL1        0.2611
     25 C         143.5244  142.2005  167.2184 C.ar    1  UNL1        0.0623
     26 C         143.1011  142.4832  168.6295 C.ar    1  UNL1        0.0254
     27 C         141.8297  141.8931  169.1636 C.ar    1  UNL1        0.0972
     28 N         141.1694  142.0033  170.5135 N.ar    1  UNL1       -0.2400
     29 C         139.8793  141.3468  170.9067 C.ar    1  UNL1        0.1282
     30 C         139.1381  140.4974  169.9172 C.ar    1  UNL1        0.1588
     31 F         137.8480  139.8409  170.3103 F       1  UNL1       -0.2027
     32 C         139.6869  140.3046  168.5346 C.ar    1  UNL1        0.0500
     33 C         140.9816  141.0204  168.2867 C.ar    1  UNL1        0.0806
     34 N         141.4048  140.7378  166.8757 N.ar    1  UNL1       -0.2915
     35 C         140.3717  139.8472  166.2515 C.3     1  UNL1        0.1402
     36 C         139.3100  139.5795  167.2767 C.3     1  UNL1        0.1335
     37 O         138.1173  139.1410  168.0738 O.3     1  UNL1       -0.3806
     38 H         137.5528  138.5739  167.5256 H       1  UNL1        0.2108
@<TRIPOS>BOND
     1    23    24    2
     2    24    25   ar
     3    25    26   ar
     4    26    27   ar
     5    27    28   ar
     6    28    29   ar
     7    29    30   ar
     8    30    31    1
     9    30    32   ar
    10    32    33   ar
    11    33    34   ar
    12    34    35    1
    13    35    36    1
    14    36    37    1
    15    36    22    1
    16    22     1    1
    17     1     2    1
    18     2     3    1
    19     3     4    1
    20     4     9    1
    21     9    11    1
    22    11    12    1
    23    12    13   ar
    24    13    14   ar
    25    14    15   ar
    26    15    16   ar
    27    16    17   ar
    28    16    18    1
    29    18    19    1
    30    19    20    1
    31    20    21    1
    32     4     5    1
    33     5     6    1
    34     4     7    1
    35     7     8    1
    36    34    24   ar
    37     6     1    1
    38    33    27   ar
    39     8     1    1
    40    36    32    1
    41    17    12   ar
    42    21    15    1
    43    37    38    1
    44     9    10    1
@<TRIPOS>MOLECULE
*****
 38 44 0 0 0
SMALL
GASTEIGER

@<TRIPOS>ATOM
      1 C         138.7373  139.0289  164.1468 C.3     1  UNL1        0.0955
      2 C         138.0696  140.3303  163.8138 C.3     1  UNL1        0.0287
      3 C         137.5678  140.5813  162.4227 C.3     1  UNL1        0.0193
      4 C         137.7336  139.5311  161.3646 C.3     1  UNL1        0.0700
      5 C         138.4012  138.2298  161.6976 C.3     1  UNL1        0.0193
      6 C         138.9031  137.9787  163.0887 C.3     1  UNL1        0.0287
      7 C         138.0248  139.3478  162.1128 C.3     1  UNL1        0.1562
      8 O         138.4785  139.1208  163.3706 O.3     1  UNL1       -0.3571
      9 N         137.2317  139.7821  159.9735 N.3     1  UNL1       -0.2926
     10 H         136.4229  140.3977  160.0589 H       1  UNL1        0.1236
     11 C         138.1381  140.3975  158.9490 C.3     1  UNL1        0.1152
     12 C         139.2997  141.2405  159.3849 C.ar    1  UNL1        0.0782
     13 C         139.1721  142.7348  159.4158 C.ar    1  UNL1        0.0195
     14 C         140.3336  143.5779  159.8517 C.ar    1  UNL1        0.0430
     15 C         141.6228  142.9268  160.2567 C.ar    1  UNL1        0.1916
     16 C         141.7504  141.4325  160.2258 C.ar    1  UNL1        0.2598
     17 N         140.5889  140.5894  159.7898 N.ar    1  UNL1       -0.2121
     18 O         143.0396  140.7813  160.6307 O.3     1  UNL1       -0.4541
     19 C         144.2011  141.6244  161.0666 C.3     1  UNL1        0.2543
     20 C         144.0735  143.1186  161.0976 C.3     1  UNL1        0.2528
     21 O         142.7843  143.7699  160.6926 O.3     1  UNL1       -0.4667
     22 C         139.2392  138.7779  165.5379 C.3     1  UNL1        0.0604
     23 O         138.1100  140.0877  170.3641 O.2     1  UNL1       -0.2670
     24 C         139.3536  140.7534  169.8539 C.ar    1  UNL1        0.2611
     25 C         140.1201  141.6902  170.7397 C.ar    1  UNL1        0.0623
     26 C         141.3637  142.3559  170.2296 C.ar    1  UNL1        0.0254
     27 C         141.8408  142.0847  168.8336 C.ar    1  UNL1        0.0972
     28 N         143.0321  142.6013  168.0691 N.ar    1  UNL1       -0.2400
     29 C         143.3853  142.2349  166.6581 C.ar    1  UNL1        0.1282
     30 C         142.5191  141.2793  165.8921 C.ar    1  UNL1        0.1588
     31 F         142.8723  140.9129  164.4811 F       1  UNL1       -0.2027
     32 C         141.2998  140.6902  166.5372 C.ar    1  UNL1        0.0500
     33 C         141.0744  141.1479  167.9478 C.ar    1  UNL1        0.0806
     34 N         139.8307  140.4822  168.4579 N.ar    1  UNL1       -0.2915
     35 C         139.2876  139.6131  167.3626 C.3     1  UNL1        0.1402
     36 C         140.1955  139.7416  166.1755 C.3     1  UNL1        0.1335
     37 O         140.9035  139.6687  164.8552 O.3     1  UNL1       -0.3806
     38 H         140.4245  139.0669  164.2642 H       1  UNL1        0.2108
@<TRIPOS>BOND
     1    23    24    2
     2    24    25   ar
     3    25    26   ar
     4    26    27   ar
     5    27    28   ar
     6    28    29   ar
     7    29    30   ar
     8    30    31    1
     9    30    32   ar
    10    32    33   ar
    11    33    34   ar
    12    34    35    1
    13    35    36    1
    14    36    37    1
    15    36    22    1
    16    22     1    1
    17     1     2    1
    18     2     3    1
    19     3     4    1
    20     4     9    1
    21     9    11    1
    22    11    12    1
    23    12    13   ar
    24    13    14   ar
    25    14    15   ar
    26    15    16   ar
    27    16    17   ar
    28    16    18    1
    29    18    19    1
    30    19    20    1
    31    20    21    1
    32     4     5    1
    33     5     6    1
    34     4     7    1
    35     7     8    1
    36    34    24   ar
    37     6     1    1
    38    33    27   ar
    39     8     1    1
    40    36    32    1
    41    17    12   ar
    42    21    15    1
    43    37    38    1
    44     9    10    1
@<TRIPOS>MOLECULE
*****
 38 44 0 0 0
SMALL
GASTEIGER

@<TRIPOS>ATOM
      1 C         143.9323  139.7937  164.2860 C.3     1  UNL1        0.0955
      2 C         143.9890  139.2526  162.8880 C.3     1  UNL1        0.0287
      3 C         144.3911  140.1473  161.7532 C.3     1  UNL1        0.0193
      4 C         144.7366  141.5831  162.0163 C.3     1  UNL1        0.0700
      5 C         144.6798  142.1241  163.4142 C.3     1  UNL1        0.0193
      6 C         144.2777  141.2294  164.5491 C.3     1  UNL1        0.0287
      7 C         144.5218  141.1312  162.6704 C.3     1  UNL1        0.1562
      8 O         144.1582  140.3222  163.6965 O.3     1  UNL1       -0.3571
      9 N         145.1387  142.4778  160.8815 N.3     1  UNL1       -0.2926
     10 H         145.8234  141.9624  160.3285 H       1  UNL1        0.1236
     11 C         144.1023  142.9858  159.9235 C.3     1  UNL1        0.1152
     12 C         142.6662  143.0716  160.3483 C.ar    1  UNL1        0.0782
     13 C         141.6198  142.2835  159.6177 C.ar    1  UNL1        0.0195
     14 C         140.1837  142.3692  160.0424 C.ar    1  UNL1        0.0430
     15 C         139.7941  143.2430  161.1976 C.ar    1  UNL1        0.1916
     16 C         140.8405  144.0312  161.9282 C.ar    1  UNL1        0.2598
     17 N         142.2766  143.9454  161.5035 N.ar    1  UNL1       -0.2121
     18 O         140.4510  144.9050  163.0834 O.3     1  UNL1       -0.4541
     19 C         139.0150  144.9907  163.5081 C.3     1  UNL1        0.2543
     20 C         137.9685  144.2027  162.7776 C.3     1  UNL1        0.2528
     21 O         138.3580  143.3288  161.6223 O.3     1  UNL1       -0.4667
     22 C         143.5301  138.8989  165.4207 C.3     1  UNL1        0.0604
     23 O         143.5293  140.7161  170.2145 O.2     1  UNL1       -0.2670
     24 C         142.1506  140.4270  169.6992 C.ar    1  UNL1        0.2611
     25 C         140.9562  140.6765  170.5717 C.ar    1  UNL1        0.0623
     26 C         139.5775  140.3873  170.0564 C.ar    1  UNL1        0.0254
     27 C         139.3931  139.8487  168.6687 C.ar    1  UNL1        0.0972
     28 N         138.1517  139.4734  167.9015 N.ar    1  UNL1       -0.2400
     29 C         138.1237  138.9401  166.4998 C.ar    1  UNL1        0.1282
     30 C         139.4059  138.7420  165.7470 C.ar    1  UNL1        0.1588
     31 F         139.3778  138.2087  164.3453 F       1  UNL1       -0.2027
     32 C         140.7161  139.0771  166.3959 C.ar    1  UNL1        0.0500
     33 C         140.5875  139.5992  167.7962 C.ar    1  UNL1        0.0806
     34 N         141.9662  139.8884  168.3115 N.ar    1  UNL1       -0.2915
     35 C         142.9469  139.5450  167.2296 C.3     1  UNL1        0.1402
     36 C         142.1742  139.0436  166.0457 C.3     1  UNL1        0.1335
     37 O         141.6850  138.5120  164.7312 O.3     1  UNL1       -0.3806
     38 H         142.4422  138.3427  164.1489 H       1  UNL1        0.2108
@<TRIPOS>BOND
     1    23    24    2
     2    24    25   ar
     3    25    26   ar
     4    26    27   ar
     5    27    28   ar
     6    28    29   ar
     7    29    30   ar
     8    30    31    1
     9    30    32   ar
    10    32    33   ar
    11    33    34   ar
    12    34    35    1
    13    35    36    1
    14    36    37    1
    15    36    22    1
    16    22     1    1
    17     1     2    1
    18     2     3    1
    19     3     4    1
    20     4     9    1
    21     9    11    1
    22    11    12    1
    23    12    13   ar
    24    13    14   ar
    25    14    15   ar
    26    15    16   ar
    27    16    17   ar
    28    16    18    1
    29    18    19    1
    30    19    20    1
    31    20    21    1
    32     4     5    1
    33     5     6    1
    34     4     7    1
    35     7     8    1
    36    34    24   ar
    37     6     1    1
    38    33    27   ar
    39     8     1    1
    40    36    32    1
    41    17    12   ar
    42    21    15    1
    43    37    38    1
    44     9    10    1
@<TRIPOS>MOLECULE
*****
 38 44 0 0 0
SMALL
GASTEIGER

@<TRIPOS>ATOM
      1 C         144.3592  140.7089  162.5121 C.3     1  UNL1        0.0955
      2 C         143.8331  140.0113  161.2927 C.3     1  UNL1        0.0287
      3 C         143.7997  140.7272  159.9750 C.3     1  UNL1        0.0193
      4 C         144.2923  142.1406  159.8766 C.3     1  UNL1        0.0700
      5 C         144.8183  142.8381  161.0960 C.3     1  UNL1        0.0193
      6 C         144.8518  142.1223  162.4138 C.3     1  UNL1        0.0287
      7 C         144.3304  141.7894  160.6205 C.3     1  UNL1        0.1562
      8 O         144.3606  141.1421  161.8119 O.3     1  UNL1       -0.3571
      9 N         144.2589  142.8565  158.5589 N.3     1  UNL1       -0.2926
     10 H         144.3537  142.1447  157.8346 H       1  UNL1        0.1236
     11 C         143.0702  143.6938  158.1903 C.3     1  UNL1        0.1152
     12 C         141.8309  143.6495  159.0342 C.ar    1  UNL1        0.0782
     13 C         140.6586  142.8194  158.6021 C.ar    1  UNL1        0.0195
     14 C         139.4192  142.7751  159.4459 C.ar    1  UNL1        0.0430
     15 C         139.3522  143.5608  160.7219 C.ar    1  UNL1        0.1916
     16 C         140.5245  144.3908  161.1541 C.ar    1  UNL1        0.2598
     17 N         141.7638  144.4352  160.3102 N.ar    1  UNL1       -0.2121
     18 O         140.4575  145.1765  162.4300 O.3     1  UNL1       -0.4541
     19 C         139.2182  145.1322  163.2739 C.3     1  UNL1        0.2543
     20 C         138.0459  144.3022  162.8418 C.3     1  UNL1        0.2528
     21 O         138.1128  143.5164  161.5658 O.3     1  UNL1       -0.4667
     22 C         144.3926  139.9930  163.8299 C.3     1  UNL1        0.0604
     23 O         140.4288  136.8822  162.8843 O.2     1  UNL1       -0.2670
     24 C         140.2098  137.7603  164.0806 C.ar    1  UNL1        0.2611
     25 C         138.9297  137.6651  164.8566 C.ar    1  UNL1        0.0623
     26 C         138.7107  138.5431  166.0528 C.ar    1  UNL1        0.0254
     27 C         139.7718  139.5165  166.4731 C.ar    1  UNL1        0.0972
     28 N         139.8252  140.5038  167.6100 N.ar    1  UNL1       -0.2400
     29 C         140.9710  141.4246  167.9090 C.ar    1  UNL1        0.1282
     30 C         142.1933  141.4075  167.0397 C.ar    1  UNL1        0.1588
     31 F         143.3391  142.3283  167.3386 F       1  UNL1       -0.2027
     32 C         142.2698  140.4698  165.8714 C.ar    1  UNL1        0.0500
     33 C         141.0519  139.6117  165.6971 C.ar    1  UNL1        0.0806
     34 N         141.2709  138.7336  164.5009 N.ar    1  UNL1       -0.2915
     35 C         142.6242  139.0491  163.9359 C.3     1  UNL1        0.1402
     36 C         143.2415  140.1221  164.7829 C.3     1  UNL1        0.1335
     37 O         144.0995  141.1681  165.4308 O.3     1  UNL1       -0.3806
     38 H         144.9351  141.2474  164.9446 H       1  UNL1        0.2108
@<TRIPOS>BOND
     1    23    24    2
     2    24    25   ar
     3    25    26   ar
     4    26    27   ar
     5    27    28   ar
     6    28    29   ar
     7    29    30   ar
     8    30    31    1
     9    30    32   ar
    10    32    33   ar
    11    33    34   ar
    12    34    35    1
    13    35    36    1
    14    36    37    1
    15    36    22    1
    16    22     1    1
    17     1     2    1
    18     2     3    1
    19     3     4    1
    20     4     9    1
    21     9    11    1
    22    11    12    1
    23    12    13   ar
    24    13    14   ar
    25    14    15   ar
    26    15    16   ar
    27    16    17   ar
    28    16    18    1
    29    18    19    1
    30    19    20    1
    31    20    21    1
    32     4     5    1
    33     5     6    1
    34     4     7    1
    35     7     8    1
    36    34    24   ar
    37     6     1    1
    38    33    27   ar
    39     8     1    1
    40    36    32    1
    41    17    12   ar
    42    21    15    1
    43    37    38    1
    44     9    10    1
