@<TRIPOS>MOLECULE
*****
 22 25 0 0 0
SMALL
GASTEIGER

@<TRIPOS>ATOM
      1 N         142.3414  139.4232  165.2459 N.ar    1  UNL1       -0.3206
      2 C         141.7972  139.8748  166.5688 C.ar    1  UNL1        0.0762
      3 C         142.3748  141.2258  166.8707 C.ar    1  UNL1        0.0188
      4 C         143.2760  141.6091  165.7345 C.ar    1  UNL1        0.0203
      5 C         144.1127  142.8287  165.4845 C.ar    1  UNL1        0.0222
      6 C         144.9287  142.9342  164.2304 C.ar    1  UNL1        0.0990
      7 N         144.9081  141.8201  163.2262 N.ar    1  UNL1       -0.2408
      8 C         144.0714  140.6005  163.4762 C.ar    1  UNL1        0.1160
      9 C         143.2553  140.4950  164.7303 C.ar    1  UNL1        0.0796
     10 C         142.0996  142.0490  168.0941 C.ar    1  UNL1        0.0046
     11 C         143.1589  142.2096  169.1439 C.ar    1  UNL1        0.0207
     12 C         142.8837  143.0328  170.3673 C.ar    1  UNL1        0.0989
     13 N         141.5492  143.6953  170.5409 N.ar    1  UNL1       -0.2423
     14 C         140.4899  143.5347  169.4911 C.ar    1  UNL1        0.0989
     15 C         140.7651  142.7115  168.2677 C.ar    1  UNL1        0.0207
     16 C         142.0269  138.1272  164.5593 C.3     1  UNL1        0.1328
     17 C         139.0147  138.0246  161.2176 C.ar    1  UNL1       -0.0000
     18 C         138.5777  137.7685  162.6295 C.ar    1  UNL1       -0.0003
     19 C         139.5816  137.8027  163.7434 C.ar    1  UNL1       -0.0024
     20 C         141.0228  138.0930  163.4453 C.ar    1  UNL1        0.0004
     21 C         141.4599  138.3490  162.0335 C.ar    1  UNL1       -0.0024
     22 C         140.4559  138.3148  160.9196 C.ar    1  UNL1       -0.0003
@<TRIPOS>BOND
     1    17    18   ar
     2    18    19   ar
     3    19    20   ar
     4    20    16    1
     5    16     1    1
     6     1     2   ar
     7     2     3   ar
     8     3    10    1
     9    10    11   ar
    10    11    12   ar
    11    12    13   ar
    12    13    14   ar
    13    14    15   ar
    14     3     4   ar
    15     4     5   ar
    16     5     6   ar
    17     6     7   ar
    18     7     8   ar
    19     8     9   ar
    20    20    21   ar
    21    21    22   ar
    22    22    17   ar
    23     9     1   ar
    24    15    10   ar
    25     9     4   ar
@<TRIPOS>MOLECULE
*****
 22 25 0 0 0
SMALL
GASTEIGER

@<TRIPOS>ATOM
      1 N         142.4852  139.3279  165.8495 N.ar    1  UNL1       -0.3206
      2 C         142.6683  140.0808  167.1339 C.ar    1  UNL1        0.0762
      3 C         141.3227  140.2292  167.7799 C.ar    1  UNL1        0.0188
      4 C         140.3080  139.5681  166.8948 C.ar    1  UNL1        0.0203
      5 C         138.8227  139.4013  167.0211 C.ar    1  UNL1        0.0222
      6 C         138.0559  138.6776  165.9542 C.ar    1  UNL1        0.0990
      7 N         138.7744  138.1206  164.7611 N.ar    1  UNL1       -0.2408
      8 C         140.2597  138.2874  164.6349 C.ar    1  UNL1        0.1160
      9 C         141.0265  139.0111  165.7017 C.ar    1  UNL1        0.0796
     10 C         141.0411  140.9178  169.0825 C.ar    1  UNL1        0.0046
     11 C         140.2975  142.2205  169.0967 C.ar    1  UNL1        0.0207
     12 C         140.0160  142.9091  170.3993 C.ar    1  UNL1        0.0989
     13 N         140.4780  142.2951  171.6875 N.ar    1  UNL1       -0.2423
     14 C         141.2215  140.9924  171.6732 C.ar    1  UNL1        0.0989
     15 C         141.5031  140.3038  170.3706 C.ar    1  UNL1        0.0207
     16 C         143.5704  138.9571  164.8826 C.3     1  UNL1        0.1328
     17 C         145.0419  141.9747  161.8861 C.ar    1  UNL1       -0.0000
     18 C         145.7402  141.8256  163.2052 C.ar    1  UNL1       -0.0003
     19 C         145.2498  140.8197  164.2040 C.ar    1  UNL1       -0.0024
     20 C         144.0609  139.9630  163.8837 C.ar    1  UNL1        0.0004
     21 C         143.3626  140.1122  162.5646 C.ar    1  UNL1       -0.0024
     22 C         143.8530  141.1180  161.5658 C.ar    1  UNL1       -0.0003
@<TRIPOS>BOND
     1    17    18   ar
     2    18    19   ar
     3    19    20   ar
     4    20    16    1
     5    16     1    1
     6     1     2   ar
     7     2     3   ar
     8     3    10    1
     9    10    11   ar
    10    11    12   ar
    11    12    13   ar
    12    13    14   ar
    13    14    15   ar
    14     3     4   ar
    15     4     5   ar
    16     5     6   ar
    17     6     7   ar
    18     7     8   ar
    19     8     9   ar
    20    20    21   ar
    21    21    22   ar
    22    22    17   ar
    23     9     1   ar
    24    15    10   ar
    25     9     4   ar
@<TRIPOS>MOLECULE
*****
 22 25 0 0 0
SMALL
GASTEIGER

@<TRIPOS>ATOM
      1 N         138.4629  141.8621  164.1027 N.ar    1  UNL1       -0.3206
      2 C         139.1555  141.9703  165.4288 C.ar    1  UNL1        0.0762
      3 C         139.6250  140.6003  165.8195 C.ar    1  UNL1        0.0188
      4 C         139.2225  139.6454  164.7350 C.ar    1  UNL1        0.0203
      5 C         139.4173  138.1666  164.5765 C.ar    1  UNL1        0.0222
      6 C         138.8938  137.4677  163.3569 C.ar    1  UNL1        0.0990
      7 N         138.1756  138.2476  162.2958 N.ar    1  UNL1       -0.2408
      8 C         137.9808  139.7264  162.4543 C.ar    1  UNL1        0.1160
      9 C         138.5043  140.4253  163.6738 C.ar    1  UNL1        0.0796
     10 C         140.3667  140.2471  167.0746 C.ar    1  UNL1        0.0046
     11 C         139.6717  140.3190  168.4020 C.ar    1  UNL1        0.0207
     12 C         140.4134  139.9659  169.6571 C.ar    1  UNL1        0.0989
     13 N         141.8500  139.5407  169.5848 N.ar    1  UNL1       -0.2423
     14 C         142.5450  139.4687  168.2574 C.ar    1  UNL1        0.0989
     15 C         141.8033  139.8219  167.0024 C.ar    1  UNL1        0.0207
     16 C         137.8385  142.9923  163.3393 C.3     1  UNL1        0.1328
     17 C         140.3421  145.4701  160.5387 C.ar    1  UNL1       -0.0000
     18 C         139.9807  144.0607  160.1739 C.ar    1  UNL1       -0.0003
     19 C         139.1462  143.2348  161.1073 C.ar    1  UNL1       -0.0024
     20 C         138.6731  143.8183  162.4057 C.ar    1  UNL1        0.0004
     21 C         139.0345  145.2276  162.7705 C.ar    1  UNL1       -0.0024
     22 C         139.8690  146.0536  161.8371 C.ar    1  UNL1       -0.0003
@<TRIPOS>BOND
     1    17    18   ar
     2    18    19   ar
     3    19    20   ar
     4    20    16    1
     5    16     1    1
     6     1     2   ar
     7     2     3   ar
     8     3    10    1
     9    10    11   ar
    10    11    12   ar
    11    12    13   ar
    12    13    14   ar
    13    14    15   ar
    14     3     4   ar
    15     4     5   ar
    16     5     6   ar
    17     6     7   ar
    18     7     8   ar
    19     8     9   ar
    20    20    21   ar
    21    21    22   ar
    22    22    17   ar
    23     9     1   ar
    24    15    10   ar
    25     9     4   ar
@<TRIPOS>MOLECULE
*****
 22 25 0 0 0
SMALL
GASTEIGER

@<TRIPOS>ATOM
      1 N         142.8547  142.2765  164.8996 N.ar    1  UNL1       -0.3206
      2 C         142.5723  141.7716  166.2836 C.ar    1  UNL1        0.0762
      3 C         141.2507  142.3306  166.7202 C.ar    1  UNL1        0.0188
      4 C         140.7162  143.1811  165.6062 C.ar    1  UNL1        0.0203
      5 C         139.4549  143.9816  165.4711 C.ar    1  UNL1        0.0222
      6 C         139.1849  144.7487  164.2107 C.ar    1  UNL1        0.0990
      7 N         140.1763  144.7152  163.0854 N.ar    1  UNL1       -0.2408
      8 C         141.4376  143.9147  163.2206 C.ar    1  UNL1        0.1160
      9 C         141.7075  143.1477  164.4810 C.ar    1  UNL1        0.0796
     10 C         140.5810  142.0827  168.0394 C.ar    1  UNL1        0.0046
     11 C         140.5592  143.1595  169.0835 C.ar    1  UNL1        0.0207
     12 C         139.8896  142.9116  170.4027 C.ar    1  UNL1        0.0989
     13 N         139.2418  141.5870  170.6777 N.ar    1  UNL1       -0.2423
     14 C         139.2636  140.5103  169.6336 C.ar    1  UNL1        0.0989
     15 C         139.9332  140.7582  168.3145 C.ar    1  UNL1        0.0207
     16 C         144.0707  141.9651  164.0784 C.3     1  UNL1        0.1328
     17 C         143.8662  138.8331  160.8537 C.ar    1  UNL1       -0.0000
     18 C         144.0007  140.2809  160.4855 C.ar    1  UNL1       -0.0003
     19 C         144.0689  141.3250  161.5604 C.ar    1  UNL1       -0.0024
     20 C         144.0025  140.9211  163.0035 C.ar    1  UNL1        0.0004
     21 C         143.8680  139.4732  163.3716 C.ar    1  UNL1       -0.0024
     22 C         143.7999  138.4292  162.2968 C.ar    1  UNL1       -0.0003
@<TRIPOS>BOND
     1    17    18   ar
     2    18    19   ar
     3    19    20   ar
     4    20    16    1
     5    16     1    1
     6     1     2   ar
     7     2     3   ar
     8     3    10    1
     9    10    11   ar
    10    11    12   ar
    11    12    13   ar
    12    13    14   ar
    13    14    15   ar
    14     3     4   ar
    15     4     5   ar
    16     5     6   ar
    17     6     7   ar
    18     7     8   ar
    19     8     9   ar
    20    20    21   ar
    21    21    22   ar
    22    22    17   ar
    23     9     1   ar
    24    15    10   ar
    25     9     4   ar
@<TRIPOS>MOLECULE
*****
 22 25 0 0 0
SMALL
GASTEIGER

@<TRIPOS>ATOM
      1 N         139.7237  139.1757  165.4742 N.ar    1  UNL1       -0.3206
      2 C         139.3415  139.5537  166.8746 C.ar    1  UNL1        0.0762
      3 C         140.4401  140.4032  167.4416 C.ar    1  UNL1        0.0188
      4 C         141.5012  140.5503  166.3916 C.ar    1  UNL1        0.0203
      5 C         142.8134  141.2769  166.3856 C.ar    1  UNL1        0.0222
      6 C         143.6828  141.2450  165.1637 C.ar    1  UNL1        0.0990
      7 N         143.2400  140.4864  163.9478 N.ar    1  UNL1       -0.2408
      8 C         141.9278  139.7597  163.9538 C.ar    1  UNL1        0.1160
      9 C         141.0584  139.7916  165.1757 C.ar    1  UNL1        0.0796
     10 C         140.4720  141.0007  168.8171 C.ar    1  UNL1        0.0046
     11 C         140.2305  142.4696  169.0025 C.ar    1  UNL1        0.0207
     12 C         140.2624  143.0671  170.3780 C.ar    1  UNL1        0.0989
     13 N         140.5359  142.1959  171.5680 N.ar    1  UNL1       -0.2423
     14 C         140.7774  140.7271  171.3826 C.ar    1  UNL1        0.0989
     15 C         140.7455  140.1296  170.0071 C.ar    1  UNL1        0.0207
     16 C         138.9133  138.3303  164.5369 C.3     1  UNL1        0.1328
     17 C         138.2847  139.6570  160.2831 C.ar    1  UNL1       -0.0000
     18 C         137.7146  140.4633  161.4122 C.ar    1  UNL1       -0.0003
     19 C         137.9241  140.0211  162.8301 C.ar    1  UNL1       -0.0024
     20 C         138.7038  138.7726  163.1189 C.ar    1  UNL1        0.0004
     21 C         139.2739  137.9663  161.9898 C.ar    1  UNL1       -0.0024
     22 C         139.0644  138.4085  160.5718 C.ar    1  UNL1       -0.0003
@<TRIPOS>BOND
     1    17    18   ar
     2    18    19   ar
     3    19    20   ar
     4    20    16    1
     5    16     1    1
     6     1     2   ar
     7     2     3   ar
     8     3    10    1
     9    10    11   ar
    10    11    12   ar
    11    12    13   ar
    12    13    14   ar
    13    14    15   ar
    14     3     4   ar
    15     4     5   ar
    16     5     6   ar
    17     6     7   ar
    18     7     8   ar
    19     8     9   ar
    20    20    21   ar
    21    21    22   ar
    22    22    17   ar
    23     9     1   ar
    24    15    10   ar
    25     9     4   ar
@<TRIPOS>MOLECULE
*****
 22 25 0 0 0
SMALL
GASTEIGER

@<TRIPOS>ATOM
      1 N         138.8280  142.8701  164.6480 N.ar    1  UNL1       -0.3206
      2 C         139.6679  143.5091  165.7140 C.ar    1  UNL1        0.0762
      3 C         140.2123  142.4200  166.5901 C.ar    1  UNL1        0.0188
      4 C         139.7089  141.1080  166.0656 C.ar    1  UNL1        0.0203
      5 C         139.9190  139.6959  166.5259 C.ar    1  UNL1        0.0222
      6 C         139.2735  138.5620  165.7859 C.ar    1  UNL1        0.0990
      7 N         138.4180  138.8402  164.5856 N.ar    1  UNL1       -0.2408
      8 C         138.2079  140.2522  164.1253 C.ar    1  UNL1        0.1160
      9 C         138.8533  141.3861  164.8653 C.ar    1  UNL1        0.0796
     10 C         141.1037  142.6097  167.7815 C.ar    1  UNL1        0.0046
     11 C         142.5308  142.1501  167.7313 C.ar    1  UNL1        0.0207
     12 C         143.4222  142.3398  168.9227 C.ar    1  UNL1        0.0989
     13 N         142.8865  142.9890  170.1643 N.ar    1  UNL1       -0.2423
     14 C         141.4596  143.4485  170.2145 C.ar    1  UNL1        0.0989
     15 C         140.5682  143.2588  169.0231 C.ar    1  UNL1        0.0207
     16 C         138.0920  143.5889  163.5564 C.3     1  UNL1        0.1328
     17 C         140.2952  144.9528  159.8773 C.ar    1  UNL1       -0.0000
     18 C         140.1358  145.8822  161.0437 C.ar    1  UNL1       -0.0003
     19 C         139.4014  145.4277  162.2701 C.ar    1  UNL1       -0.0024
     20 C         138.8264  144.0435  162.3300 C.ar    1  UNL1        0.0004
     21 C         138.9858  143.1141  161.1635 C.ar    1  UNL1       -0.0024
     22 C         139.7201  143.5687  159.9371 C.ar    1  UNL1       -0.0003
@<TRIPOS>BOND
     1    17    18   ar
     2    18    19   ar
     3    19    20   ar
     4    20    16    1
     5    16     1    1
     6     1     2   ar
     7     2     3   ar
     8     3    10    1
     9    10    11   ar
    10    11    12   ar
    11    12    13   ar
    12    13    14   ar
    13    14    15   ar
    14     3     4   ar
    15     4     5   ar
    16     5     6   ar
    17     6     7   ar
    18     7     8   ar
    19     8     9   ar
    20    20    21   ar
    21    21    22   ar
    22    22    17   ar
    23     9     1   ar
    24    15    10   ar
    25     9     4   ar
@<TRIPOS>MOLECULE
*****
 22 25 0 0 0
SMALL
GASTEIGER

@<TRIPOS>ATOM
      1 N         141.3666  141.2168  165.1767 N.ar    1  UNL1       -0.3206
      2 C         140.4675  142.1535  164.4256 C.ar    1  UNL1        0.0762
      3 C         141.2802  142.8149  163.3522 C.ar    1  UNL1        0.0188
      4 C         142.6814  142.2870  163.4400 C.ar    1  UNL1        0.0203
      5 C         143.9156  142.5780  162.6388 C.ar    1  UNL1        0.0222
      6 C         145.2033  141.8814  162.9652 C.ar    1  UNL1        0.0990
      7 N         145.2567  140.8937  164.0928 N.ar    1  UNL1       -0.2408
      8 C         144.0225  140.6026  164.8940 C.ar    1  UNL1        0.1160
      9 C         142.7349  141.2993  164.5676 C.ar    1  UNL1        0.0796
     10 C         140.7794  143.8267  162.3645 C.ar    1  UNL1        0.0046
     11 C         140.3596  145.1884  162.8331 C.ar    1  UNL1        0.0207
     12 C         139.8589  146.2002  161.8454 C.ar    1  UNL1        0.0989
     13 N         139.7779  145.8502  160.3890 N.ar    1  UNL1       -0.2423
     14 C         140.1977  144.4885  159.9204 C.ar    1  UNL1        0.0989
     15 C         140.6984  143.4768  160.9082 C.ar    1  UNL1        0.0207
     16 C         140.9675  140.3498  166.3339 C.3     1  UNL1        0.1328
     17 C         139.7017  142.2289  170.2220 C.ar    1  UNL1       -0.0000
     18 C         140.5347  143.0086  169.2482 C.ar    1  UNL1       -0.0003
     19 C         140.9567  142.3823  167.9522 C.ar    1  UNL1       -0.0024
     20 C         140.5456  140.9762  167.6300 C.ar    1  UNL1        0.0004
     21 C         139.7126  140.1964  168.6037 C.ar    1  UNL1       -0.0024
     22 C         139.2906  140.8227  169.8997 C.ar    1  UNL1       -0.0003
@<TRIPOS>BOND
     1    17    18   ar
     2    18    19   ar
     3    19    20   ar
     4    20    16    1
     5    16     1    1
     6     1     2   ar
     7     2     3   ar
     8     3    10    1
     9    10    11   ar
    10    11    12   ar
    11    12    13   ar
    12    13    14   ar
    13    14    15   ar
    14     3     4   ar
    15     4     5   ar
    16     5     6   ar
    17     6     7   ar
    18     7     8   ar
    19     8     9   ar
    20    20    21   ar
    21    21    22   ar
    22    22    17   ar
    23     9     1   ar
    24    15    10   ar
    25     9     4   ar
@<TRIPOS>MOLECULE
*****
 22 25 0 0 0
SMALL
GASTEIGER

@<TRIPOS>ATOM
      1 N         140.5876  141.4167  165.3573 N.ar    1  UNL1       -0.3206
      2 C         141.5271  141.3181  164.1921 C.ar    1  UNL1        0.0762
      3 C         141.3689  139.9564  163.5832 C.ar    1  UNL1        0.0188
      4 C         140.3317  139.2135  164.3720 C.ar    1  UNL1        0.0203
      5 C         139.7646  137.8318  164.2336 C.ar    1  UNL1        0.0222
      6 C         138.7145  137.3526  165.1915 C.ar    1  UNL1        0.0990
      7 N         138.2316  138.2552  166.2880 N.ar    1  UNL1       -0.2408
      8 C         138.7987  139.6369  166.4265 C.ar    1  UNL1        0.1160
      9 C         139.8488  140.1160  165.4685 C.ar    1  UNL1        0.0796
     10 C         142.1167  139.4300  162.3942 C.ar    1  UNL1        0.0046
     11 C         141.7800  139.9230  161.0180 C.ar    1  UNL1        0.0207
     12 C         142.5278  139.3966  159.8290 C.ar    1  UNL1        0.0989
     13 N         143.6123  138.3773  160.0161 N.ar    1  UNL1       -0.2423
     14 C         143.9490  137.8844  161.3923 C.ar    1  UNL1        0.0989
     15 C         143.2012  138.4108  162.5813 C.ar    1  UNL1        0.0207
     16 C         140.4168  142.6071  166.2539 C.3     1  UNL1        0.1328
     17 C         142.6034  142.7971  170.1824 C.ar    1  UNL1       -0.0000
     18 C         141.1841  143.2736  170.0902 C.ar    1  UNL1       -0.0003
     19 C         140.4552  143.2103  168.7807 C.ar    1  UNL1       -0.0024
     20 C         141.1457  142.6704  167.5634 C.ar    1  UNL1        0.0004
     21 C         142.5650  142.1939  167.6556 C.ar    1  UNL1       -0.0024
     22 C         143.2939  142.2572  168.9651 C.ar    1  UNL1       -0.0003
@<TRIPOS>BOND
     1    17    18   ar
     2    18    19   ar
     3    19    20   ar
     4    20    16    1
     5    16     1    1
     6     1     2   ar
     7     2     3   ar
     8     3    10    1
     9    10    11   ar
    10    11    12   ar
    11    12    13   ar
    12    13    14   ar
    13    14    15   ar
    14     3     4   ar
    15     4     5   ar
    16     5     6   ar
    17     6     7   ar
    18     7     8   ar
    19     8     9   ar
    20    20    21   ar
    21    21    22   ar
    22    22    17   ar
    23     9     1   ar
    24    15    10   ar
    25     9     4   ar
@<TRIPOS>MOLECULE
*****
 22 25 0 0 0
SMALL
GASTEIGER

@<TRIPOS>ATOM
      1 N         141.9389  141.2252  164.9263 N.ar    1  UNL1       -0.3206
      2 C         140.9296  142.1394  164.2975 C.ar    1  UNL1        0.0762
      3 C         141.6000  142.8625  163.1672 C.ar    1  UNL1        0.0188
      4 C         143.0236  142.3952  163.0974 C.ar    1  UNL1        0.0203
      5 C         144.1562  142.7604  162.1843 C.ar    1  UNL1        0.0222
      6 C         145.4983  142.1136  162.3584 C.ar    1  UNL1        0.0990
      7 N         145.7078  141.1016  163.4456 N.ar    1  UNL1       -0.2408
      8 C         144.5752  140.7364  164.3587 C.ar    1  UNL1        0.1160
      9 C         143.2331  141.3832  164.1846 C.ar    1  UNL1        0.0796
     10 C         140.9592  143.8752  162.2650 C.ar    1  UNL1        0.0046
     11 C         140.4949  145.1885  162.8219 C.ar    1  UNL1        0.0207
     12 C         139.8542  146.2012  161.9197 C.ar    1  UNL1        0.0989
     13 N         139.6777  145.9007  160.4608 N.ar    1  UNL1       -0.2423
     14 C         140.1420  144.5876  159.9040 C.ar    1  UNL1        0.0989
     15 C         140.7827  143.5749  160.8061 C.ar    1  UNL1        0.0207
     16 C         141.6966  140.3129  166.0921 C.3     1  UNL1        0.1328
     17 C         137.8712  137.9570  166.3486 C.ar    1  UNL1       -0.0000
     18 C         138.1517  139.0425  167.3451 C.ar    1  UNL1       -0.0003
     19 C         139.4268  139.8279  167.2596 C.ar    1  UNL1       -0.0024
     20 C         140.4214  139.5276  166.1776 C.ar    1  UNL1        0.0004
     21 C         140.1409  138.4421  165.1812 C.ar    1  UNL1       -0.0024
     22 C         138.8658  137.6567  165.2667 C.ar    1  UNL1       -0.0003
@<TRIPOS>BOND
     1    17    18   ar
     2    18    19   ar
     3    19    20   ar
     4    20    16    1
     5    16     1    1
     6     1     2   ar
     7     2     3   ar
     8     3    10    1
     9    10    11   ar
    10    11    12   ar
    11    12    13   ar
    12    13    14   ar
    13    14    15   ar
    14     3     4   ar
    15     4     5   ar
    16     5     6   ar
    17     6     7   ar
    18     7     8   ar
    19     8     9   ar
    20    20    21   ar
    21    21    22   ar
    22    22    17   ar
    23     9     1   ar
    24    15    10   ar
    25     9     4   ar
