@<TRIPOS>MOLECULE
*****
 32 37 0 0 0
SMALL
GASTEIGER

@<TRIPOS>ATOM
      1 C         139.5908  139.6251  160.2796 C.2     1  UNL1        0.0292
      2 C         138.3771  140.3058  159.7196 C.2     1  UNL1        0.2320
      3 N         137.4816  141.1031  160.6207 N.2     1  UNL1       -0.0311
      4 C         137.7997  141.2199  162.0819 C.2     1  UNL1        0.3720
      5 N         137.1075  141.9322  163.2061 N.2     1  UNL1       -0.0308
      6 C         137.8934  141.6918  164.4608 C.2     1  UNL1        0.2355
      7 C         139.0713  140.8309  164.1122 C.2     1  UNL1        0.0469
      8 C         139.0134  140.5393  162.6420 C.2     1  UNL1        0.0740
      9 C         139.9089  139.7419  161.7408 C.3     1  UNL1        0.0645
     10 C         140.1226  140.3467  165.0663 C.2     1  UNL1       -0.0140
     11 C         141.3866  139.7330  164.5413 C.2     1  UNL1       -0.0023
     12 C         142.4379  139.2488  165.4954 C.2     1  UNL1        0.0185
     13 C         142.2251  139.3782  166.9746 C.2     1  UNL1        0.0777
     14 N         143.0762  138.9938  168.1485 N.2     1  UNL1       -0.2442
     15 C         142.3381  139.3698  169.3990 C.2     1  UNL1        0.0985
     16 C         141.0310  139.9867  168.9980 C.2     1  UNL1        0.0182
     17 C         140.9611  139.9919  167.4996 C.2     1  UNL1        0.0014
     18 C         139.9099  140.4761  166.5455 C.3     1  UNL1        0.0543
     19 C         142.2777  137.2329  157.5762 C.ar    1  UNL1       -0.0061
     20 C         142.7585  137.6482  158.9351 C.ar    1  UNL1       -0.0029
     21 C         141.8629  138.4456  159.8361 C.ar    1  UNL1       -0.0005
     22 C         140.4864  138.8277  159.3784 C.ar    1  UNL1        0.0000
     23 C         140.0057  138.4125  158.0197 C.ar    1  UNL1       -0.0005
     24 C         140.9013  137.6150  157.1185 C.ar    1  UNL1       -0.0029
     25 C         143.1733  136.4355  156.6751 C.3     1  UNL1        0.0992
     26 C         142.2138  130.5603  155.9269 C.3     1  UNL1        0.0897
     27 N         142.4537  132.0291  156.1139 N.3     1  UNL1       -0.2691
     28 C         143.4867  132.5015  157.0936 C.3     1  UNL1        0.0897
     29 C         143.7266  133.9704  157.2807 C.3     1  UNL1        0.0899
     30 N         142.9335  134.9667  156.4881 N.3     1  UNL1       -0.2665
     31 C         141.9004  134.4942  155.5084 C.3     1  UNL1        0.0899
     32 C         141.6606  133.0254  155.3213 C.3     1  UNL1        0.0897
@<TRIPOS>BOND
     1    26    27    1
     2    27    28    1
     3    28    29    1
     4    29    30    1
     5    30    25    1
     6    25    19    1
     7    19    20   ar
     8    20    21   ar
     9    21    22   ar
    10    22     1    1
    11     1     2    2
    12     2     3    1
    13     3     4    2
    14     4     5    1
    15     5     6    2
    16     6     7    1
    17     7    10    1
    18    10    11    2
    19    11    12    1
    20    12    13    2
    21    13    14    1
    22    14    15    2
    23    15    16    1
    24    16    17    2
    25    17    18    1
    26     7     8    2
    27     8     9    1
    28    22    23   ar
    29    23    24   ar
    30    30    31    1
    31    31    32    1
    32    32    27    1
    33    24    19   ar
    34     9     1    1
    35     8     4    1
    36    18    10    1
    37    17    13    1
@<TRIPOS>MOLECULE
*****
 32 37 0 0 0
SMALL
GASTEIGER

@<TRIPOS>ATOM
      1 C         142.6439  138.8069  159.0669 C.2     1  UNL1        0.0292
      2 C         142.3857  140.1045  158.3601 C.2     1  UNL1        0.2320
      3 N         142.1574  140.1185  156.8777 N.2     1  UNL1       -0.0311
      4 C         142.1875  138.8349  156.1020 C.2     1  UNL1        0.3720
      5 N         141.9988  138.5389  154.6436 N.2     1  UNL1       -0.0308
      6 C         142.1405  137.0583  154.4492 C.2     1  UNL1        0.2355
      7 C         142.4167  136.4394  155.7873 C.2     1  UNL1        0.0469
      8 C         142.4457  137.5374  156.8088 C.2     1  UNL1        0.0740
      9 C         142.6740  137.5234  158.2913 C.3     1  UNL1        0.0645
     10 C         142.6270  134.9788  156.0567 C.2     1  UNL1       -0.0140
     11 C         141.6740  133.9673  155.4924 C.2     1  UNL1       -0.0023
     12 C         141.8843  132.5067  155.7617 C.2     1  UNL1        0.0185
     13 C         143.0476  132.0577  156.5955 C.2     1  UNL1        0.0777
     14 N         143.5073  130.6966  157.0268 N.2     1  UNL1       -0.2442
     15 C         144.7444  130.8669  157.8577 C.2     1  UNL1        0.0985
     16 C         145.0493  132.3333  157.9399 C.2     1  UNL1        0.0182
     17 C         144.0005  133.0693  157.1598 C.2     1  UNL1        0.0014
     18 C         143.7903  134.5298  156.8904 C.3     1  UNL1        0.0543
     19 C         143.3286  138.7647  163.5144 C.ar    1  UNL1       -0.0061
     20 C         142.1729  138.0106  162.9262 C.ar    1  UNL1       -0.0029
     21 C         141.9447  138.0247  161.4438 C.ar    1  UNL1       -0.0005
     22 C         142.8721  138.7928  160.5494 C.ar    1  UNL1        0.0000
     23 C         144.0277  139.5469  161.1376 C.ar    1  UNL1       -0.0005
     24 C         144.2560  139.5328  162.6201 C.ar    1  UNL1       -0.0029
     25 C         143.5567  138.7506  164.9968 C.3     1  UNL1        0.0992
     26 C         140.6404  142.6359  168.5180 C.3     1  UNL1        0.0897
     27 N         141.3695  141.6646  167.6377 N.3     1  UNL1       -0.2691
     28 C         141.9216  140.3960  168.2170 C.3     1  UNL1        0.0897
     29 C         142.6507  139.4246  167.3367 C.3     1  UNL1        0.0899
     30 N         142.8277  139.7219  165.8771 N.3     1  UNL1       -0.2665
     31 C         142.2755  140.9906  165.2979 C.3     1  UNL1        0.0899
     32 C         141.5464  141.9619  166.1781 C.3     1  UNL1        0.0897
@<TRIPOS>BOND
     1    26    27    1
     2    27    28    1
     3    28    29    1
     4    29    30    1
     5    30    25    1
     6    25    19    1
     7    19    20   ar
     8    20    21   ar
     9    21    22   ar
    10    22     1    1
    11     1     2    2
    12     2     3    1
    13     3     4    2
    14     4     5    1
    15     5     6    2
    16     6     7    1
    17     7    10    1
    18    10    11    2
    19    11    12    1
    20    12    13    2
    21    13    14    1
    22    14    15    2
    23    15    16    1
    24    16    17    2
    25    17    18    1
    26     7     8    2
    27     8     9    1
    28    22    23   ar
    29    23    24   ar
    30    30    31    1
    31    31    32    1
    32    32    27    1
    33    24    19   ar
    34     9     1    1
    35     8     4    1
    36    18    10    1
    37    17    13    1
@<TRIPOS>MOLECULE
*****
 32 37 0 0 0
SMALL
GASTEIGER

@<TRIPOS>ATOM
      1 C         141.7345  143.3148  161.9164 C.2     1  UNL1        0.0292
      2 C         143.0110  144.0662  161.6802 C.2     1  UNL1        0.2320
      3 N         144.0120  144.2108  162.7879 N.2     1  UNL1       -0.0311
      4 C         143.7365  143.6040  164.1317 C.2     1  UNL1        0.3720
      5 N         144.5295  143.5824  165.4049 N.2     1  UNL1       -0.0308
      6 C         143.7430  142.8176  166.4279 C.2     1  UNL1        0.2355
      7 C         142.4640  142.3666  165.7870 C.2     1  UNL1        0.0469
      8 C         142.4600  142.8525  164.3679 C.2     1  UNL1        0.0740
      9 C         141.4590  142.7079  163.2602 C.3     1  UNL1        0.0645
     10 C         141.3794  141.5694  166.4489 C.2     1  UNL1       -0.0140
     11 C         141.1049  141.7472  167.9128 C.2     1  UNL1       -0.0023
     12 C         140.0202  140.9501  168.5747 C.2     1  UNL1        0.0185
     13 C         139.2100  139.9751  167.7728 C.2     1  UNL1        0.0777
     14 N         138.0848  139.0571  168.1483 N.2     1  UNL1       -0.2442
     15 C         137.6639  138.3119  166.9164 C.2     1  UNL1        0.0985
     16 C         138.5289  138.7695  165.7796 C.2     1  UNL1        0.0182
     17 C         139.4845  139.7974  166.3089 C.2     1  UNL1        0.0014
     18 C         140.5692  140.5945  165.6470 C.3     1  UNL1        0.0543
     19 C         138.7311  142.8808  158.5934 C.ar    1  UNL1       -0.0061
     20 C         138.5291  142.1492  159.8872 C.ar    1  UNL1       -0.0029
     21 C         139.5302  142.2938  160.9948 C.ar    1  UNL1       -0.0005
     22 C         140.7333  143.1701  160.8087 C.ar    1  UNL1        0.0000
     23 C         140.9354  143.9017  159.5149 C.ar    1  UNL1       -0.0005
     24 C         139.9342  143.7571  158.4072 C.ar    1  UNL1       -0.0029
     25 C         137.7300  142.7362  157.4858 C.3     1  UNL1        0.0992
     26 C         137.5264  137.6761  154.2681 C.3     1  UNL1        0.0897
     27 N         137.5773  138.9411  155.0725 N.3     1  UNL1       -0.2691
     28 C         138.8226  139.3000  155.8277 C.3     1  UNL1        0.0897
     29 C         138.8735  140.5651  156.6322 C.3     1  UNL1        0.0899
     30 N         137.6792  141.4712  156.6814 N.3     1  UNL1       -0.2665
     31 C         136.4338  141.1122  155.9261 C.3     1  UNL1        0.0899
     32 C         136.3829  139.8472  155.1217 C.3     1  UNL1        0.0897
@<TRIPOS>BOND
     1    26    27    1
     2    27    28    1
     3    28    29    1
     4    29    30    1
     5    30    25    1
     6    25    19    1
     7    19    20   ar
     8    20    21   ar
     9    21    22   ar
    10    22     1    1
    11     1     2    2
    12     2     3    1
    13     3     4    2
    14     4     5    1
    15     5     6    2
    16     6     7    1
    17     7    10    1
    18    10    11    2
    19    11    12    1
    20    12    13    2
    21    13    14    1
    22    14    15    2
    23    15    16    1
    24    16    17    2
    25    17    18    1
    26     7     8    2
    27     8     9    1
    28    22    23   ar
    29    23    24   ar
    30    30    31    1
    31    31    32    1
    32    32    27    1
    33    24    19   ar
    34     9     1    1
    35     8     4    1
    36    18    10    1
    37    17    13    1
@<TRIPOS>MOLECULE
*****
 32 37 0 0 0
SMALL
GASTEIGER

@<TRIPOS>ATOM
      1 C         142.4328  137.3331  157.4082 C.2     1  UNL1        0.0292
      2 C         141.6162  138.0285  156.3596 C.2     1  UNL1        0.2320
      3 N         141.1147  137.2640  155.1705 N.2     1  UNL1       -0.0311
      4 C         141.4297  135.8042  155.0300 C.2     1  UNL1        0.3720
      5 N         141.0749  134.7977  153.9758 N.2     1  UNL1       -0.0308
      6 C         141.6723  133.4804  154.3730 C.2     1  UNL1        0.2355
      7 C         142.3962  133.6727  155.6726 C.2     1  UNL1        0.0469
      8 C         142.2463  135.1089  156.0786 C.2     1  UNL1        0.0740
      9 C         142.7478  135.8733  157.2678 C.3     1  UNL1        0.0645
     10 C         143.1395  132.6146  156.4327 C.2     1  UNL1       -0.0140
     11 C         144.3954  132.9660  157.1739 C.2     1  UNL1       -0.0023
     12 C         145.1387  131.9078  157.9340 C.2     1  UNL1        0.0185
     13 C         144.6262  130.4982  157.9530 C.2     1  UNL1        0.0777
     14 N         145.1411  129.2518  158.6098 N.2     1  UNL1       -0.2442
     15 C         144.2034  128.1301  158.2745 C.2     1  UNL1        0.0985
     16 C         143.1091  128.6832  157.4105 C.2     1  UNL1        0.0182
     17 C         143.3704  130.1468  157.2118 C.2     1  UNL1        0.0014
     18 C         142.6271  131.2049  156.4517 C.3     1  UNL1        0.0543
     19 C         143.9374  139.6265  160.9757 C.ar    1  UNL1       -0.0061
     20 C         143.7958  140.3117  159.6489 C.ar    1  UNL1       -0.0029
     21 C         143.2942  139.5472  158.4598 C.ar    1  UNL1       -0.0005
     22 C         142.9343  138.0976  158.5974 C.ar    1  UNL1        0.0000
     23 C         143.0760  137.4124  159.9242 C.ar    1  UNL1       -0.0005
     24 C         143.5775  138.1768  161.1134 C.ar    1  UNL1       -0.0029
     25 C         144.4390  140.3909  162.1648 C.3     1  UNL1        0.0992
     26 C         141.8134  145.5511  163.7390 C.3     1  UNL1        0.0897
     27 N         142.4698  144.2611  163.3455 N.3     1  UNL1       -0.2691
     28 C         141.7467  142.9615  163.5410 C.3     1  UNL1        0.0897
     29 C         142.4031  141.6714  163.1474 C.3     1  UNL1        0.0899
     30 N         143.7826  141.6810  162.5584 N.3     1  UNL1       -0.2665
     31 C         144.5057  142.9806  162.3629 C.3     1  UNL1        0.0899
     32 C         143.8492  144.2706  162.7564 C.3     1  UNL1        0.0897
@<TRIPOS>BOND
     1    26    27    1
     2    27    28    1
     3    28    29    1
     4    29    30    1
     5    30    25    1
     6    25    19    1
     7    19    20   ar
     8    20    21   ar
     9    21    22   ar
    10    22     1    1
    11     1     2    2
    12     2     3    1
    13     3     4    2
    14     4     5    1
    15     5     6    2
    16     6     7    1
    17     7    10    1
    18    10    11    2
    19    11    12    1
    20    12    13    2
    21    13    14    1
    22    14    15    2
    23    15    16    1
    24    16    17    2
    25    17    18    1
    26     7     8    2
    27     8     9    1
    28    22    23   ar
    29    23    24   ar
    30    30    31    1
    31    31    32    1
    32    32    27    1
    33    24    19   ar
    34     9     1    1
    35     8     4    1
    36    18    10    1
    37    17    13    1
@<TRIPOS>MOLECULE
*****
 32 37 0 0 0
SMALL
GASTEIGER

@<TRIPOS>ATOM
      1 C         140.0757  141.7970  161.3325 C.2     1  UNL1        0.0292
      2 C         139.1063  142.7758  160.7392 C.2     1  UNL1        0.2320
      3 N         138.4489  143.8032  161.6124 N.2     1  UNL1       -0.0311
      4 C         138.7610  143.8517  163.0788 C.2     1  UNL1        0.3720
      5 N         138.2718  144.7450  164.1801 N.2     1  UNL1       -0.0308
      6 C         138.9390  144.3181  165.4539 C.2     1  UNL1        0.2355
      7 C         139.8405  143.1611  165.1399 C.2     1  UNL1        0.0469
      8 C         139.7305  142.8728  163.6720 C.2     1  UNL1        0.0740
      9 C         140.3878  141.8455  162.7988 C.3     1  UNL1        0.0645
     10 C         140.7009  142.4220  166.1214 C.2     1  UNL1       -0.0140
     11 C         142.1949  142.5216  166.0330 C.2     1  UNL1       -0.0023
     12 C         143.0553  141.7826  167.0146 C.2     1  UNL1        0.0185
     13 C         142.4217  140.9439  168.0846 C.2     1  UNL1        0.0777
     14 N         143.0079  140.1083  169.1838 N.2     1  UNL1       -0.2442
     15 C         141.8761  139.4923  169.9516 C.2     1  UNL1        0.0985
     16 C         140.5905  139.9471  169.3270 C.2     1  UNL1        0.0182
     17 C         140.9277  140.8443  168.1731 C.2     1  UNL1        0.0014
     18 C         140.0673  141.5833  167.1915 C.3     1  UNL1        0.0543
     19 C         142.0479  138.7148  158.7130 C.ar    1  UNL1       -0.0061
     20 C         141.9234  140.1327  158.2395 C.ar    1  UNL1       -0.0029
     21 C         141.2660  141.1601  159.1126 C.ar    1  UNL1       -0.0005
     22 C         140.7331  140.7696  160.4593 C.ar    1  UNL1        0.0000
     23 C         140.8576  139.3518  160.9328 C.ar    1  UNL1       -0.0005
     24 C         141.5150  138.3243  160.0597 C.ar    1  UNL1       -0.0029
     25 C         142.7052  137.6875  157.8398 C.3     1  UNL1        0.0992
     26 C         140.0636  135.9517  152.7400 C.3     1  UNL1        0.0897
     27 N         140.7240  136.3856  154.0150 N.3     1  UNL1       -0.2691
     28 C         142.2179  136.5002  154.0844 C.3     1  UNL1        0.0897
     29 C         142.8784  136.9342  155.3594 C.3     1  UNL1        0.0899
     30 N         142.0448  137.2536  156.5649 N.3     1  UNL1       -0.2665
     31 C         140.5508  137.1389  156.4954 C.3     1  UNL1        0.0899
     32 C         139.8904  136.7050  155.2204 C.3     1  UNL1        0.0897
@<TRIPOS>BOND
     1    26    27    1
     2    27    28    1
     3    28    29    1
     4    29    30    1
     5    30    25    1
     6    25    19    1
     7    19    20   ar
     8    20    21   ar
     9    21    22   ar
    10    22     1    1
    11     1     2    2
    12     2     3    1
    13     3     4    2
    14     4     5    1
    15     5     6    2
    16     6     7    1
    17     7    10    1
    18    10    11    2
    19    11    12    1
    20    12    13    2
    21    13    14    1
    22    14    15    2
    23    15    16    1
    24    16    17    2
    25    17    18    1
    26     7     8    2
    27     8     9    1
    28    22    23   ar
    29    23    24   ar
    30    30    31    1
    31    31    32    1
    32    32    27    1
    33    24    19   ar
    34     9     1    1
    35     8     4    1
    36    18    10    1
    37    17    13    1
@<TRIPOS>MOLECULE
*****
 32 37 0 0 0
SMALL
GASTEIGER

@<TRIPOS>ATOM
      1 C         143.9026  140.6127  160.3500 C.2     1  UNL1        0.0292
      2 C         144.4129  142.0033  160.1140 C.2     1  UNL1        0.2320
      3 N         144.5202  142.5356  158.7158 N.2     1  UNL1       -0.0311
      4 C         144.1172  141.6773  157.5535 C.2     1  UNL1        0.3720
      5 N         144.1125  141.9280  156.0746 N.2     1  UNL1       -0.0308
      6 C         143.5993  140.6924  155.3966 C.2     1  UNL1        0.2355
      7 C         143.2867  139.6780  156.4565 C.2     1  UNL1        0.0469
      8 C         143.6068  140.2867  157.7895 C.2     1  UNL1        0.0740
      9 C         143.4995  139.7544  159.1877 C.3     1  UNL1        0.0645
     10 C         142.7486  138.2972  156.2241 C.2     1  UNL1       -0.0140
     11 C         141.2678  138.0737  156.1399 C.2     1  UNL1       -0.0023
     12 C         140.7297  136.6930  155.9076 C.2     1  UNL1        0.0185
     13 C         141.6724  135.5357  155.7594 C.2     1  UNL1        0.0777
     14 N         141.4370  134.0731  155.5245 N.2     1  UNL1       -0.2442
     15 C         142.7723  133.3926  155.4635 C.2     1  UNL1        0.0985
     16 C         143.8330  134.4347  155.6607 C.2     1  UNL1        0.0182
     17 C         143.1532  135.7592  155.8436 C.2     1  UNL1        0.0014
     18 C         143.6913  137.1399  156.0760 C.3     1  UNL1        0.0543
     19 C         143.5806  139.0157  164.5448 C.ar    1  UNL1       -0.0061
     20 C         142.7610  138.4073  163.4456 C.ar    1  UNL1       -0.0029
     21 C         142.8684  138.9396  162.0474 C.ar    1  UNL1       -0.0005
     22 C         143.7953  140.0804  161.7483 C.ar    1  UNL1        0.0000
     23 C         144.6148  140.6889  162.8474 C.ar    1  UNL1       -0.0005
     24 C         144.5075  140.1565  164.2457 C.ar    1  UNL1       -0.0029
     25 C         143.4733  138.4834  165.9430 C.3     1  UNL1        0.0992
     26 C         139.3806  140.7395  169.7059 C.3     1  UNL1        0.0897
     27 N         140.4037  140.1755  168.7652 N.3     1  UNL1       -0.2691
     28 C         141.7481  139.7571  169.2824 C.3     1  UNL1        0.0897
     29 C         142.7714  139.1931  168.3417 C.3     1  UNL1        0.0899
     30 N         142.4501  139.0474  166.8837 N.3     1  UNL1       -0.2665
     31 C         141.1056  139.4657  166.3666 C.3     1  UNL1        0.0899
     32 C         140.0825  140.0298  167.3073 C.3     1  UNL1        0.0897
@<TRIPOS>BOND
     1    26    27    1
     2    27    28    1
     3    28    29    1
     4    29    30    1
     5    30    25    1
     6    25    19    1
     7    19    20   ar
     8    20    21   ar
     9    21    22   ar
    10    22     1    1
    11     1     2    2
    12     2     3    1
    13     3     4    2
    14     4     5    1
    15     5     6    2
    16     6     7    1
    17     7    10    1
    18    10    11    2
    19    11    12    1
    20    12    13    2
    21    13    14    1
    22    14    15    2
    23    15    16    1
    24    16    17    2
    25    17    18    1
    26     7     8    2
    27     8     9    1
    28    22    23   ar
    29    23    24   ar
    30    30    31    1
    31    31    32    1
    32    32    27    1
    33    24    19   ar
    34     9     1    1
    35     8     4    1
    36    18    10    1
    37    17    13    1
@<TRIPOS>MOLECULE
*****
 32 37 0 0 0
SMALL
GASTEIGER

@<TRIPOS>ATOM
      1 C         142.5474  140.8967  159.1264 C.2     1  UNL1        0.0292
      2 C         143.4944  141.9706  158.6795 C.2     1  UNL1        0.2320
      3 N         143.7178  143.1790  159.5396 N.2     1  UNL1       -0.0311
      4 C         142.9942  143.3135  160.8466 C.2     1  UNL1        0.3720
      5 N         143.0123  144.3828  161.8985 N.2     1  UNL1       -0.0308
      6 C         142.0764  143.9696  162.9955 C.2     1  UNL1        0.2355
      7 C         141.4799  142.6451  162.6216 C.2     1  UNL1        0.0469
      8 C         142.0472  142.2396  161.2935 C.2     1  UNL1        0.0740
      9 C         141.8238  141.0312  160.4334 C.3     1  UNL1        0.0645
     10 C         140.4900  141.8633  163.4333 C.2     1  UNL1       -0.0140
     11 C         139.2254  142.5166  163.9064 C.2     1  UNL1       -0.0023
     12 C         138.2355  141.7348  164.7180 C.2     1  UNL1        0.0185
     13 C         138.5101  140.2995  165.0566 C.2     1  UNL1        0.0777
     14 N         137.7266  139.2841  165.8343 N.2     1  UNL1       -0.2442
     15 C         138.5069  138.0031  165.8419 C.2     1  UNL1        0.0985
     16 C         139.7727  138.2269  165.0688 C.2     1  UNL1        0.0182
     17 C         139.7747  139.6462  164.5834 C.2     1  UNL1        0.0014
     18 C         140.7646  140.4280  163.7718 C.3     1  UNL1        0.0543
     19 C         141.8770  137.2714  156.5460 C.ar    1  UNL1       -0.0061
     20 C         143.1128  138.1023  156.3657 C.ar    1  UNL1       -0.0029
     21 C         143.3363  139.3106  157.2258 C.ar    1  UNL1       -0.0005
     22 C         142.3239  139.6883  158.2663 C.ar    1  UNL1        0.0000
     23 C         141.0881  138.8575  158.4466 C.ar    1  UNL1       -0.0005
     24 C         140.8646  137.6490  157.5864 C.ar    1  UNL1       -0.0029
     25 C         141.6536  136.0630  155.6859 C.3     1  UNL1        0.0992
     26 C         143.9701  130.7669  157.2933 C.3     1  UNL1        0.0897
     27 N         143.3910  132.0909  156.8915 N.3     1  UNL1       -0.2691
     28 C         142.3683  132.1609  155.7965 C.3     1  UNL1        0.0897
     29 C         141.7891  133.4849  155.3946 C.3     1  UNL1        0.0899
     30 N         142.2327  134.7390  156.0877 N.3     1  UNL1       -0.2665
     31 C         143.2555  134.6690  157.1828 C.3     1  UNL1        0.0899
     32 C         143.8346  133.3450  157.5846 C.3     1  UNL1        0.0897
@<TRIPOS>BOND
     1    26    27    1
     2    27    28    1
     3    28    29    1
     4    29    30    1
     5    30    25    1
     6    25    19    1
     7    19    20   ar
     8    20    21   ar
     9    21    22   ar
    10    22     1    1
    11     1     2    2
    12     2     3    1
    13     3     4    2
    14     4     5    1
    15     5     6    2
    16     6     7    1
    17     7    10    1
    18    10    11    2
    19    11    12    1
    20    12    13    2
    21    13    14    1
    22    14    15    2
    23    15    16    1
    24    16    17    2
    25    17    18    1
    26     7     8    2
    27     8     9    1
    28    22    23   ar
    29    23    24   ar
    30    30    31    1
    31    31    32    1
    32    32    27    1
    33    24    19   ar
    34     9     1    1
    35     8     4    1
    36    18    10    1
    37    17    13    1
@<TRIPOS>MOLECULE
*****
 32 37 0 0 0
SMALL
GASTEIGER

@<TRIPOS>ATOM
      1 C         134.9566  140.4414  155.9046 C.2     1  UNL1        0.0292
      2 C         135.5466  140.5516  154.5300 C.2     1  UNL1        0.2320
      3 N         137.0046  140.8613  154.3623 N.2     1  UNL1       -0.0311
      4 C         137.8727  141.0609  155.5692 C.2     1  UNL1        0.3720
      5 N         139.3323  141.3746  155.7149 N.2     1  UNL1       -0.0308
      6 C         139.6443  141.4583  157.1797 C.2     1  UNL1        0.2355
      7 C         138.3776  141.1964  157.9392 C.2     1  UNL1        0.0469
      8 C         137.2827  140.9507  156.9438 C.2     1  UNL1        0.0740
      9 C         135.8247  140.6410  157.1116 C.3     1  UNL1        0.0645
     10 C         138.2315  141.1825  159.4320 C.2     1  UNL1       -0.0140
     11 C         138.0359  139.8826  160.1544 C.2     1  UNL1       -0.0023
     12 C         137.8898  139.8687  161.6472 C.2     1  UNL1        0.0185
     13 C         137.9391  141.1548  162.4176 C.2     1  UNL1        0.0777
     14 N         137.8256  141.4516  163.8836 N.2     1  UNL1       -0.2442
     15 C         137.9509  142.9351  164.0671 C.2     1  UNL1        0.0985
     16 C         138.1419  143.5550  162.7147 C.2     1  UNL1        0.0182
     17 C         138.1347  142.4547  161.6952 C.2     1  UNL1        0.0014
     18 C         138.2808  142.4686  160.2024 C.3     1  UNL1        0.0543
     19 C         130.5824  139.5122  156.4080 C.ar    1  UNL1       -0.0061
     20 C         131.6130  138.4757  156.7452 C.ar    1  UNL1       -0.0029
     21 C         133.0711  138.7855  156.5774 C.ar    1  UNL1       -0.0005
     22 C         133.4985  140.1317  156.0724 C.ar    1  UNL1        0.0000
     23 C         132.4680  141.1681  155.7352 C.ar    1  UNL1       -0.0005
     24 C         131.0099  140.8584  155.9030 C.ar    1  UNL1       -0.0029
     25 C         129.1244  139.2024  156.5758 C.3     1  UNL1        0.0992
     26 C         127.0602  137.2561  161.8626 C.3     1  UNL1        0.0897
     27 N         127.5762  137.7427  160.5409 N.3     1  UNL1       -0.2691
     28 C         127.6233  136.8120  159.3656 C.3     1  UNL1        0.0897
     29 C         128.1394  137.2986  158.0438 C.3     1  UNL1        0.0899
     30 N         128.6084  138.7158  157.8975 N.3     1  UNL1       -0.2665
     31 C         128.5613  139.6465  159.0729 C.3     1  UNL1        0.0899
     32 C         128.0452  139.1600  160.3946 C.3     1  UNL1        0.0897
@<TRIPOS>BOND
     1    26    27    1
     2    27    28    1
     3    28    29    1
     4    29    30    1
     5    30    25    1
     6    25    19    1
     7    19    20   ar
     8    20    21   ar
     9    21    22   ar
    10    22     1    1
    11     1     2    2
    12     2     3    1
    13     3     4    2
    14     4     5    1
    15     5     6    2
    16     6     7    1
    17     7    10    1
    18    10    11    2
    19    11    12    1
    20    12    13    2
    21    13    14    1
    22    14    15    2
    23    15    16    1
    24    16    17    2
    25    17    18    1
    26     7     8    2
    27     8     9    1
    28    22    23   ar
    29    23    24   ar
    30    30    31    1
    31    31    32    1
    32    32    27    1
    33    24    19   ar
    34     9     1    1
    35     8     4    1
    36    18    10    1
    37    17    13    1
@<TRIPOS>MOLECULE
*****
 32 37 0 0 0
SMALL
GASTEIGER

@<TRIPOS>ATOM
      1 C         141.8081  143.0538  158.8679 C.2     1  UNL1        0.0292
      2 C         142.0245  144.4836  158.4694 C.2     1  UNL1        0.2320
      3 N         141.4718  145.5904  159.3176 N.2     1  UNL1       -0.0311
      4 C         140.7027  145.2674  160.5643 C.2     1  UNL1        0.3720
      5 N         140.0438  146.1397  161.5914 N.2     1  UNL1       -0.0308
      6 C         139.4202  145.2490  162.6247 C.2     1  UNL1        0.2355
      7 C         139.6937  143.8262  162.2362 C.2     1  UNL1        0.0469
      8 C         140.4864  143.8376  160.9627 C.2     1  UNL1        0.0740
      9 C         141.0390  142.7308  160.1145 C.3     1  UNL1        0.0645
     10 C         139.2521  142.6062  162.9889 C.2     1  UNL1       -0.0140
     11 C         138.3236  141.6214  162.3425 C.2     1  UNL1       -0.0023
     12 C         137.8820  140.4014  163.0952 C.2     1  UNL1        0.0185
     13 C         138.3690  140.1662  164.4944 C.2     1  UNL1        0.0777
     14 N         138.1069  139.0629  165.4762 N.2     1  UNL1       -0.2442
     15 C         138.8736  139.3658  166.7294 C.2     1  UNL1        0.0985
     16 C         139.6094  140.6564  166.5221 C.2     1  UNL1        0.0182
     17 C         139.2975  141.1511  165.1407 C.2     1  UNL1        0.0014
     18 C         139.7391  142.3711  164.3880 C.3     1  UNL1        0.0543
     19 C         143.4661  139.7332  156.3233 C.ar    1  UNL1       -0.0061
     20 C         142.9964  139.4458  157.7186 C.ar    1  UNL1       -0.0029
     21 C         142.4437  140.5527  158.5667 C.ar    1  UNL1       -0.0005
     22 C         142.3608  141.9469  158.0196 C.ar    1  UNL1        0.0000
     23 C         142.8305  142.2343  156.6244 C.ar    1  UNL1       -0.0005
     24 C         143.3832  141.1274  155.7762 C.ar    1  UNL1       -0.0029
     25 C         144.0188  138.6263  155.4752 C.3     1  UNL1        0.0992
     26 C         141.2957  133.2809  155.3715 C.3     1  UNL1        0.0897
     27 N         141.9764  134.6172  155.3974 N.3     1  UNL1       -0.2691
     28 C         143.4350  134.7094  155.7351 C.3     1  UNL1        0.0897
     29 C         144.1158  136.0458  155.7610 C.3     1  UNL1        0.0899
     30 N         143.3380  137.2900  155.4492 N.3     1  UNL1       -0.2665
     31 C         141.8794  137.1977  155.1115 C.3     1  UNL1        0.0899
     32 C         141.1986  135.8614  155.0856 C.3     1  UNL1        0.0897
@<TRIPOS>BOND
     1    26    27    1
     2    27    28    1
     3    28    29    1
     4    29    30    1
     5    30    25    1
     6    25    19    1
     7    19    20   ar
     8    20    21   ar
     9    21    22   ar
    10    22     1    1
    11     1     2    2
    12     2     3    1
    13     3     4    2
    14     4     5    1
    15     5     6    2
    16     6     7    1
    17     7    10    1
    18    10    11    2
    19    11    12    1
    20    12    13    2
    21    13    14    1
    22    14    15    2
    23    15    16    1
    24    16    17    2
    25    17    18    1
    26     7     8    2
    27     8     9    1
    28    22    23   ar
    29    23    24   ar
    30    30    31    1
    31    31    32    1
    32    32    27    1
    33    24    19   ar
    34     9     1    1
    35     8     4    1
    36    18    10    1
    37    17    13    1
