@<TRIPOS>MOLECULE
*****
 21 22 0 0 0
SMALL
GASTEIGER

@<TRIPOS>ATOM
      1 C         140.0139  140.7703  167.7586 C.ar    1  UNL1        0.0262
      2 C         139.1084  139.6053  168.0280 C.ar    1  UNL1       -0.0042
      3 C         138.1838  139.1102  166.9556 C.ar    1  UNL1       -0.0219
      4 C         137.2783  137.9451  167.2251 C.3     1  UNL1        0.0310
      5 C         138.1648  139.7802  165.6137 C.ar    1  UNL1       -0.0011
      6 C         139.0703  140.9452  165.3442 C.ar    1  UNL1        0.0369
      7 C         139.9949  141.4403  166.4167 C.ar    1  UNL1        0.1425
      8 C         140.9384  141.2654  168.8310 C.3     1  UNL1        0.0799
      9 C         141.5277  140.3010  169.8172 C.3     1  UNL1        0.0221
     10 C         140.4091  143.6465  169.7255 C.3     1  UNL1        0.0861
     11 N         141.2737  142.7249  168.9173 N.3     1  UNL1       -0.2939
     12 H         142.2149  142.7884  169.3052 H       1  UNL1        0.1235
     13 O         140.9004  142.6054  166.1472 O.3     1  UNL1       -0.4537
     14 C         142.1920  142.3975  165.4133 C.ar    1  UNL1        0.1462
     15 C         142.8513  143.5493  164.7143 C.ar    1  UNL1        0.0384
     16 C         144.1429  143.3414  163.9804 C.ar    1  UNL1        0.0154
     17 C         144.7751  141.9816  163.9455 C.ar    1  UNL1        0.0684
     18 CL        146.0667  141.7736  163.2116 Cl      1  UNL1       -0.0814
     19 C         144.1158  140.8297  164.6444 C.ar    1  UNL1        0.0712
     20 CL        144.7481  139.4699  164.6095 Cl      1  UNL1       -0.0813
     21 C         142.8242  141.0377  165.3784 C.ar    1  UNL1        0.0497
@<TRIPOS>BOND
     1    10    11    1
     2    11     8    1
     3     8     9    1
     4     8     1    1
     5     1     2   ar
     6     2     3   ar
     7     3     4    1
     8     3     5   ar
     9     5     6   ar
    10     6     7   ar
    11     7    13    1
    12    13    14    1
    13    14    15   ar
    14    15    16   ar
    15    16    17   ar
    16    17    18    1
    17    17    19   ar
    18    19    20    1
    19    19    21   ar
    20     7     1   ar
    21    21    14   ar
    22    11    12    1
@<TRIPOS>MOLECULE
*****
 21 22 0 0 0
SMALL
GASTEIGER

@<TRIPOS>ATOM
      1 C         140.9866  140.5819  167.3529 C.ar    1  UNL1        0.0262
      2 C         142.1653  139.6763  167.5537 C.ar    1  UNL1       -0.0042
      3 C         142.6947  138.8687  166.4060 C.ar    1  UNL1       -0.0219
      4 C         143.8736  137.9630  166.6068 C.3     1  UNL1        0.0310
      5 C         142.0454  138.9666  165.0574 C.ar    1  UNL1       -0.0011
      6 C         140.8667  139.8722  164.8566 C.ar    1  UNL1        0.0369
      7 C         140.3372  140.6799  166.0043 C.ar    1  UNL1        0.1425
      8 C         140.4571  141.3896  168.5007 C.3     1  UNL1        0.0799
      9 C         139.9079  140.6988  169.7136 C.3     1  UNL1        0.0221
     10 C         140.4634  143.6939  169.7007 C.3     1  UNL1        0.0861
     11 N         140.4769  142.8880  168.4356 N.3     1  UNL1       -0.2939
     12 H         141.3226  143.1496  167.9289 H       1  UNL1        0.1235
     13 O         139.1584  141.5855  165.8035 O.3     1  UNL1       -0.4537
     14 C         139.2542  142.7415  164.8525 C.ar    1  UNL1        0.1462
     15 C         138.0787  143.1069  163.9953 C.ar    1  UNL1        0.0384
     16 C         138.1745  144.2630  163.0443 C.ar    1  UNL1        0.0154
     17 C         139.4457  145.0536  162.9505 C.ar    1  UNL1        0.0684
     18 CL        139.5415  146.2096  161.9995 Cl      1  UNL1       -0.0814
     19 C         140.6212  144.6883  163.8076 C.ar    1  UNL1        0.0712
     20 CL        141.8924  145.4789  163.7138 Cl      1  UNL1       -0.0813
     21 C         140.5254  143.5322  164.7587 C.ar    1  UNL1        0.0497
@<TRIPOS>BOND
     1    10    11    1
     2    11     8    1
     3     8     9    1
     4     8     1    1
     5     1     2   ar
     6     2     3   ar
     7     3     4    1
     8     3     5   ar
     9     5     6   ar
    10     6     7   ar
    11     7    13    1
    12    13    14    1
    13    14    15   ar
    14    15    16   ar
    15    16    17   ar
    16    17    18    1
    17    17    19   ar
    18    19    20    1
    19    19    21   ar
    20     7     1   ar
    21    21    14   ar
    22    11    12    1
@<TRIPOS>MOLECULE
*****
 21 22 0 0 0
SMALL
GASTEIGER

@<TRIPOS>ATOM
      1 C         139.8119  140.7215  167.7564 C.ar    1  UNL1        0.0262
      2 C         138.8314  139.6378  168.0943 C.ar    1  UNL1       -0.0042
      3 C         138.1314  138.8911  166.9977 C.ar    1  UNL1       -0.0219
      4 C         137.1508  137.8074  167.3356 C.3     1  UNL1        0.0310
      5 C         138.4120  139.2280  165.5632 C.ar    1  UNL1       -0.0011
      6 C         139.3925  140.3117  165.2254 C.ar    1  UNL1        0.0369
      7 C         140.0924  141.0584  166.3220 C.ar    1  UNL1        0.1425
      8 C         140.5118  141.4682  168.8530 C.3     1  UNL1        0.0799
      9 C         139.7817  141.7963  170.1215 C.3     1  UNL1        0.0221
     10 C         143.0134  141.2594  169.5227 C.3     1  UNL1        0.0861
     11 N         141.9419  141.8868  168.6811 N.3     1  UNL1       -0.2939
     12 H         142.1872  141.7042  167.7080 H       1  UNL1        0.1235
     13 O         141.0730  142.1421  165.9840 O.3     1  UNL1       -0.4537
     14 C         140.7305  143.1652  164.9419 C.ar    1  UNL1        0.1462
     15 C         139.5094  144.0212  165.1041 C.ar    1  UNL1        0.0384
     16 C         139.1669  145.0443  164.0620 C.ar    1  UNL1        0.0154
     17 C         140.0455  145.2114  162.8577 C.ar    1  UNL1        0.0684
     18 CL        139.7030  146.2345  161.8157 Cl      1  UNL1       -0.0814
     19 C         141.2665  144.3554  162.6956 C.ar    1  UNL1        0.0712
     20 CL        142.1450  144.5225  161.4913 Cl      1  UNL1       -0.0813
     21 C         141.6090  143.3323  163.7377 C.ar    1  UNL1        0.0497
@<TRIPOS>BOND
     1    10    11    1
     2    11     8    1
     3     8     9    1
     4     8     1    1
     5     1     2   ar
     6     2     3   ar
     7     3     4    1
     8     3     5   ar
     9     5     6   ar
    10     6     7   ar
    11     7    13    1
    12    13    14    1
    13    14    15   ar
    14    15    16   ar
    15    16    17   ar
    16    17    18    1
    17    17    19   ar
    18    19    20    1
    19    19    21   ar
    20     7     1   ar
    21    21    14   ar
    22    11    12    1
@<TRIPOS>MOLECULE
*****
 21 22 0 0 0
SMALL
GASTEIGER

@<TRIPOS>ATOM
      1 C         140.2975  140.3742  166.6902 C.ar    1  UNL1        0.0262
      2 C         139.4763  139.8967  167.8510 C.ar    1  UNL1       -0.0042
      3 C         139.4328  140.6973  169.1187 C.ar    1  UNL1       -0.0219
      4 C         138.6116  140.2196  170.2796 C.3     1  UNL1        0.0310
      5 C         140.2105  141.9754  169.2257 C.ar    1  UNL1       -0.0011
      6 C         141.0317  142.4530  168.0649 C.ar    1  UNL1        0.0369
      7 C         141.0752  141.6524  166.7971 C.ar    1  UNL1        0.1425
      8 C         140.3411  139.5736  165.4225 C.3     1  UNL1        0.0799
      9 C         139.0661  139.0970  164.7923 C.3     1  UNL1        0.0221
     10 C         142.6677  138.4221  165.5257 C.3     1  UNL1        0.0861
     11 N         141.6596  139.2497  164.7849 N.3     1  UNL1       -0.2939
     12 H         141.4533  138.7552  163.9169 H       1  UNL1        0.1235
     13 O         141.8965  142.1300  165.6363 O.3     1  UNL1       -0.4537
     14 C         141.3505  143.1775  164.7119 C.ar    1  UNL1        0.1462
     15 C         142.2716  144.1903  164.0985 C.ar    1  UNL1        0.0384
     16 C         141.7256  145.2378  163.1741 C.ar    1  UNL1        0.0154
     17 C         140.2586  145.2726  162.8630 C.ar    1  UNL1        0.0684
     18 CL        139.7127  146.3201  161.9386 Cl      1  UNL1       -0.0814
     19 C         139.3376  144.2599  163.4763 C.ar    1  UNL1        0.0712
     20 CL        137.8707  144.2947  163.1651 Cl      1  UNL1       -0.0813
     21 C         139.8836  143.2123  164.4007 C.ar    1  UNL1        0.0497
@<TRIPOS>BOND
     1    10    11    1
     2    11     8    1
     3     8     9    1
     4     8     1    1
     5     1     2   ar
     6     2     3   ar
     7     3     4    1
     8     3     5   ar
     9     5     6   ar
    10     6     7   ar
    11     7    13    1
    12    13    14    1
    13    14    15   ar
    14    15    16   ar
    15    16    17   ar
    16    17    18    1
    17    17    19   ar
    18    19    20    1
    19    19    21   ar
    20     7     1   ar
    21    21    14   ar
    22    11    12    1
@<TRIPOS>MOLECULE
*****
 21 22 0 0 0
SMALL
GASTEIGER

@<TRIPOS>ATOM
      1 C         141.7208  139.5076  166.9184 C.ar    1  UNL1        0.0262
      2 C         142.6067  139.6485  168.1206 C.ar    1  UNL1       -0.0042
      3 C         142.0090  139.9616  169.4602 C.ar    1  UNL1       -0.0219
      4 C         142.8951  140.1025  170.6624 C.3     1  UNL1        0.0310
      5 C         140.5254  140.1340  169.5978 C.ar    1  UNL1       -0.0011
      6 C         139.6394  139.9931  168.3956 C.ar    1  UNL1        0.0369
      7 C         140.2371  139.6800  167.0560 C.ar    1  UNL1        0.1425
      8 C         142.3184  139.1945  165.5788 C.3     1  UNL1        0.0799
      9 C         143.2730  140.1589  164.9395 C.3     1  UNL1        0.0221
     10 C         141.4111  137.9548  163.4836 C.3     1  UNL1        0.0861
     11 N         141.9616  137.9170  164.8784 N.3     1  UNL1       -0.2939
     12 H         142.8106  137.3526  164.8447 H       1  UNL1        0.1235
     13 O         139.3510  139.5391  165.8538 O.3     1  UNL1       -0.4537
     14 C         138.8941  140.7600  165.1117 C.ar    1  UNL1        0.1462
     15 C         137.9299  140.6269  163.9704 C.ar    1  UNL1        0.0384
     16 C         137.4730  141.8477  163.2283 C.ar    1  UNL1        0.0154
     17 C         137.9803  143.2017  163.6274 C.ar    1  UNL1        0.0684
     18 CL        137.5234  144.4225  162.8853 Cl      1  UNL1       -0.0814
     19 C         138.9445  143.3349  164.7687 C.ar    1  UNL1        0.0712
     20 CL        139.4518  144.6888  165.1679 Cl      1  UNL1       -0.0813
     21 C         139.4014  142.1140  165.5109 C.ar    1  UNL1        0.0497
@<TRIPOS>BOND
     1    10    11    1
     2    11     8    1
     3     8     9    1
     4     8     1    1
     5     1     2   ar
     6     2     3   ar
     7     3     4    1
     8     3     5   ar
     9     5     6   ar
    10     6     7   ar
    11     7    13    1
    12    13    14    1
    13    14    15   ar
    14    15    16   ar
    15    16    17   ar
    16    17    18    1
    17    17    19   ar
    18    19    20    1
    19    19    21   ar
    20     7     1   ar
    21    21    14   ar
    22    11    12    1
@<TRIPOS>MOLECULE
*****
 21 22 0 0 0
SMALL
GASTEIGER

@<TRIPOS>ATOM
      1 C         139.6712  138.4124  164.5193 C.ar    1  UNL1        0.0262
      2 C         138.6005  137.6906  165.2826 C.ar    1  UNL1       -0.0042
      3 C         138.1379  138.2197  166.6078 C.ar    1  UNL1       -0.0219
      4 C         137.0672  137.4978  167.3712 C.3     1  UNL1        0.0310
      5 C         138.7460  139.4705  167.1697 C.ar    1  UNL1       -0.0011
      6 C         139.8166  140.1923  166.4063 C.ar    1  UNL1        0.0369
      7 C         140.2792  139.6632  165.0812 C.ar    1  UNL1        0.1425
      8 C         140.1338  137.8834  163.1941 C.3     1  UNL1        0.0799
      9 C         139.2005  137.8824  162.0198 C.3     1  UNL1        0.0221
     10 C         142.4333  137.9162  161.9855 C.3     1  UNL1        0.0861
     11 N         141.5296  137.3554  163.0432 N.3     1  UNL1       -0.2939
     12 H         141.9977  137.5007  163.9378 H       1  UNL1        0.1235
     13 O         141.3499  140.3851  164.3178 O.3     1  UNL1       -0.4537
     14 C         141.0824  141.7522  163.7616 C.ar    1  UNL1        0.1462
     15 C         139.8975  141.9808  162.8705 C.ar    1  UNL1        0.0384
     16 C         139.6300  143.3479  162.3143 C.ar    1  UNL1        0.0154
     17 C         140.5473  144.4865  162.6492 C.ar    1  UNL1        0.0684
     18 CL        140.2798  145.8536  162.0930 Cl      1  UNL1       -0.0814
     19 C         141.7321  144.2580  163.5402 C.ar    1  UNL1        0.0712
     20 CL        142.6494  145.3966  163.8751 Cl      1  UNL1       -0.0813
     21 C         141.9997  142.8908  164.0965 C.ar    1  UNL1        0.0497
@<TRIPOS>BOND
     1    10    11    1
     2    11     8    1
     3     8     9    1
     4     8     1    1
     5     1     2   ar
     6     2     3   ar
     7     3     4    1
     8     3     5   ar
     9     5     6   ar
    10     6     7   ar
    11     7    13    1
    12    13    14    1
    13    14    15   ar
    14    15    16   ar
    15    16    17   ar
    16    17    18    1
    17    17    19   ar
    18    19    20    1
    19    19    21   ar
    20     7     1   ar
    21    21    14   ar
    22    11    12    1
@<TRIPOS>MOLECULE
*****
 21 22 0 0 0
SMALL
GASTEIGER

@<TRIPOS>ATOM
      1 C         140.0333  138.4103  164.5177 C.ar    1  UNL1        0.0262
      2 C         138.7545  138.0737  165.2256 C.ar    1  UNL1       -0.0042
      3 C         138.4933  138.6146  166.6001 C.ar    1  UNL1       -0.0219
      4 C         137.2143  138.2779  167.3080 C.3     1  UNL1        0.0310
      5 C         139.5109  139.4921  167.2666 C.ar    1  UNL1       -0.0011
      6 C         140.7898  139.8287  166.5587 C.ar    1  UNL1        0.0369
      7 C         141.0510  139.2878  165.1843 C.ar    1  UNL1        0.1425
      8 C         140.2945  137.8695  163.1432 C.3     1  UNL1        0.0799
      9 C         139.2267  137.9439  162.0925 C.3     1  UNL1        0.0221
     10 C         142.4456  137.7967  161.6879 C.3     1  UNL1        0.0861
     11 N         141.6236  137.2542  162.8194 N.3     1  UNL1       -0.2939
     12 H         142.1954  137.3287  163.6608 H       1  UNL1        0.1235
     13 O         142.3299  139.6245  164.4764 O.3     1  UNL1       -0.4537
     14 C         142.7063  141.0586  164.2490 C.ar    1  UNL1        0.1462
     15 C         143.7045  141.7239  165.1497 C.ar    1  UNL1        0.0384
     16 C         144.0808  143.1579  164.9223 C.ar    1  UNL1        0.0154
     17 C         143.4590  143.9268  163.7944 C.ar    1  UNL1        0.0684
     18 CL        143.8353  145.3609  163.5671 Cl      1  UNL1       -0.0814
     19 C         142.4609  143.2616  162.8938 C.ar    1  UNL1        0.0712
     20 CL        141.8390  144.0304  161.7659 Cl      1  UNL1       -0.0813
     21 C         142.0845  141.8274  163.1211 C.ar    1  UNL1        0.0497
@<TRIPOS>BOND
     1    10    11    1
     2    11     8    1
     3     8     9    1
     4     8     1    1
     5     1     2   ar
     6     2     3   ar
     7     3     4    1
     8     3     5   ar
     9     5     6   ar
    10     6     7   ar
    11     7    13    1
    12    13    14    1
    13    14    15   ar
    14    15    16   ar
    15    16    17   ar
    16    17    18    1
    17    17    19   ar
    18    19    20    1
    19    19    21   ar
    20     7     1   ar
    21    21    14   ar
    22    11    12    1
@<TRIPOS>MOLECULE
*****
 21 22 0 0 0
SMALL
GASTEIGER

@<TRIPOS>ATOM
      1 C         142.2383  142.4387  166.2451 C.ar    1  UNL1        0.0262
      2 C         143.2830  142.3387  167.3168 C.ar    1  UNL1       -0.0042
      3 C         142.8867  142.4249  168.7609 C.ar    1  UNL1       -0.0219
      4 C         143.9315  142.3249  169.8326 C.3     1  UNL1        0.0310
      5 C         141.4457  142.6111  169.1333 C.ar    1  UNL1       -0.0011
      6 C         140.4010  142.7111  168.0617 C.ar    1  UNL1        0.0369
      7 C         140.7973  142.6249  166.6175 C.ar    1  UNL1        0.1425
      8 C         142.6346  142.3525  164.8009 C.3     1  UNL1        0.0799
      9 C         143.3252  141.1251  164.2847 C.3     1  UNL1        0.0221
     10 C         143.2184  144.7097  163.8776 C.3     1  UNL1        0.0861
     11 N         142.3402  143.4937  163.8730 N.3     1  UNL1       -0.2939
     12 H         142.3644  143.1166  162.9256 H       1  UNL1        0.1235
     13 O         139.7525  142.7249  165.5458 O.3     1  UNL1       -0.4537
     14 C         139.3716  141.5093  164.7539 C.ar    1  UNL1        0.1462
     15 C         139.1087  141.6253  163.2816 C.ar    1  UNL1        0.0384
     16 C         138.7279  140.4097  162.4897 C.ar    1  UNL1        0.0154
     17 C         138.6099  139.0780  163.1699 C.ar    1  UNL1        0.0684
     18 CL        138.2291  137.8624  162.3780 Cl      1  UNL1       -0.0814
     19 C         138.8728  138.9620  164.6421 C.ar    1  UNL1        0.0712
     20 CL        138.7548  137.6303  165.3224 Cl      1  UNL1       -0.0813
     21 C         139.2537  140.1776  165.4342 C.ar    1  UNL1        0.0497
@<TRIPOS>BOND
     1    10    11    1
     2    11     8    1
     3     8     9    1
     4     8     1    1
     5     1     2   ar
     6     2     3   ar
     7     3     4    1
     8     3     5   ar
     9     5     6   ar
    10     6     7   ar
    11     7    13    1
    12    13    14    1
    13    14    15   ar
    14    15    16   ar
    15    16    17   ar
    16    17    18    1
    17    17    19   ar
    18    19    20    1
    19    19    21   ar
    20     7     1   ar
    21    21    14   ar
    22    11    12    1
@<TRIPOS>MOLECULE
*****
 21 22 0 0 0
SMALL
GASTEIGER

@<TRIPOS>ATOM
      1 C         139.6514  140.1663  166.4458 C.ar    1  UNL1        0.0262
      2 C         139.3162  139.9361  167.8896 C.ar    1  UNL1       -0.0042
      3 C         140.2438  140.4253  168.9621 C.ar    1  UNL1       -0.0219
      4 C         139.9086  140.1950  170.4060 C.3     1  UNL1        0.0310
      5 C         141.5064  141.1448  168.5908 C.ar    1  UNL1       -0.0011
      6 C         141.8416  141.3751  167.1470 C.ar    1  UNL1        0.0369
      7 C         140.9140  140.8858  166.0745 C.ar    1  UNL1        0.1425
      8 C         138.7238  139.6770  165.3733 C.3     1  UNL1        0.0799
      9 C         138.7827  138.2465  164.9260 C.3     1  UNL1        0.0221
     10 C         137.6781  140.7601  163.2559 C.3     1  UNL1        0.0861
     11 N         137.7375  140.6183  164.7480 N.3     1  UNL1       -0.2939
     12 H         136.8111  140.3190  165.0524 H       1  UNL1        0.1235
     13 O         141.2493  141.1161  164.6306 O.3     1  UNL1       -0.4537
     14 C         140.9008  142.4212  163.9787 C.ar    1  UNL1        0.1462
     15 C         140.0622  143.4257  164.7122 C.ar    1  UNL1        0.0384
     16 C         139.7137  144.7309  164.0603 C.ar    1  UNL1        0.0154
     17 C         140.2037  145.0317  162.6749 C.ar    1  UNL1        0.0684
     18 CL        139.8552  146.3368  162.0229 Cl      1  UNL1       -0.0814
     19 C         141.0423  144.0273  161.9414 C.ar    1  UNL1        0.0712
     20 CL        141.5323  144.3281  160.5560 Cl      1  UNL1       -0.0813
     21 C         141.3908  142.7221  162.5933 C.ar    1  UNL1        0.0497
@<TRIPOS>BOND
     1    10    11    1
     2    11     8    1
     3     8     9    1
     4     8     1    1
     5     1     2   ar
     6     2     3   ar
     7     3     4    1
     8     3     5   ar
     9     5     6   ar
    10     6     7   ar
    11     7    13    1
    12    13    14    1
    13    14    15   ar
    14    15    16   ar
    15    16    17   ar
    16    17    18    1
    17    17    19   ar
    18    19    20    1
    19    19    21   ar
    20     7     1   ar
    21    21    14   ar
    22    11    12    1
