@<TRIPOS>MOLECULE
*****
 19 20 0 0 0
SMALL
GASTEIGER

@<TRIPOS>ATOM
      1 C         140.5797  141.9732  167.3184 C.ar    1  UNL1        0.0511
      2 C         139.9735  140.6334  167.0227 C.ar    1  UNL1        0.0163
      3 C         139.3364  139.8389  168.1240 C.ar    1  UNL1        0.0253
      4 C         139.3056  140.3841  169.5210 C.ar    1  UNL1        0.1365
      5 C         139.9118  141.7238  169.8168 C.ar    1  UNL1        0.1541
      6 O         139.8810  142.2691  171.2139 O.3     1  UNL1       -0.5039
      7 C         140.5489  142.5184  168.7155 C.ar    1  UNL1        0.0527
      8 H         139.4831  141.7728  171.9018 H       1  UNL1        0.2923
      9 C         140.3659  143.5973  165.3019 C.3     1  UNL1        0.1122
     10 N         141.2168  142.7677  166.2171 N.pl3   1  UNL1       -0.3040
     11 C         142.7048  142.7327  166.0311 C.3     1  UNL1        0.1122
     12 N         138.6685  139.5896  170.6223 N.2     1  UNL1       -0.1435
     13 N         137.2444  139.1365  170.4932 N.2     1  UNL1       -0.1284
     14 C         136.6073  138.3420  171.5945 C.ar    1  UNL1        0.1838
     15 C         135.1901  138.6222  171.9983 C.ar    1  UNL1        0.0406
     16 C         134.5530  137.8276  173.0996 C.ar    1  UNL1        0.0048
     17 C         135.3332  136.7529  173.7971 C.ar    1  UNL1        0.0208
     18 C         136.7504  136.4728  173.3932 C.ar    1  UNL1        0.1006
     19 N         137.3874  137.2673  172.2919 N.ar    1  UNL1       -0.2236
@<TRIPOS>BOND
     1     9    10    1
     2    10    11    1
     3    10     1    1
     4     1     2   ar
     5     2     3   ar
     6     3     4   ar
     7     4    12    1
     8    12    13    2
     9    13    14    1
    10    14    15   ar
    11    15    16   ar
    12    16    17   ar
    13    17    18   ar
    14    18    19   ar
    15     4     5   ar
    16     5     6    1
    17     5     7   ar
    18     7     1   ar
    19    19    14   ar
    20     6     8    1
@<TRIPOS>MOLECULE
*****
 19 20 0 0 0
SMALL
GASTEIGER

@<TRIPOS>ATOM
      1 C         140.7312  140.5674  167.4806 C.ar    1  UNL1        0.0511
      2 C         141.9602  139.8100  167.0737 C.ar    1  UNL1        0.0163
      3 C         142.7813  139.1007  168.1094 C.ar    1  UNL1        0.0253
      4 C         142.3734  139.1490  169.5520 C.ar    1  UNL1        0.1365
      5 C         141.1444  139.9065  169.9589 C.ar    1  UNL1        0.1541
      6 O         140.7364  139.9548  171.4016 O.3     1  UNL1       -0.5039
      7 C         140.3232  140.6157  168.9232 C.ar    1  UNL1        0.0527
      8 H         141.2493  139.5117  172.0486 H       1  UNL1        0.2923
      9 C         138.8770  140.5225  165.6613 C.3     1  UNL1        0.1122
     10 N         139.9100  141.2766  166.4448 N.pl3   1  UNL1       -0.3040
     11 C         140.1220  142.7400  166.1926 C.3     1  UNL1        0.1122
     12 N         143.1946  138.4398  170.5878 N.2     1  UNL1       -0.1435
     13 N         143.9221  137.1771  170.2325 N.2     1  UNL1       -0.1284
     14 C         144.7432  136.4679  171.2683 C.ar    1  UNL1        0.1838
     15 C         145.8234  137.2052  172.0030 C.ar    1  UNL1        0.0406
     16 C         146.6445  136.4960  173.0387 C.ar    1  UNL1        0.0048
     17 C         146.3855  135.0494  173.3397 C.ar    1  UNL1        0.0208
     18 C         145.3054  134.3122  172.6050 C.ar    1  UNL1        0.1006
     19 N         144.4843  135.0214  171.5693 N.ar    1  UNL1       -0.2236
@<TRIPOS>BOND
     1     9    10    1
     2    10    11    1
     3    10     1    1
     4     1     2   ar
     5     2     3   ar
     6     3     4   ar
     7     4    12    1
     8    12    13    2
     9    13    14    1
    10    14    15   ar
    11    15    16   ar
    12    16    17   ar
    13    17    18   ar
    14    18    19   ar
    15     4     5   ar
    16     5     6    1
    17     5     7   ar
    18     7     1   ar
    19    19    14   ar
    20     6     8    1
@<TRIPOS>MOLECULE
*****
 19 20 0 0 0
SMALL
GASTEIGER

@<TRIPOS>ATOM
      1 C         143.5811  142.6638  160.4927 C.ar    1  UNL1        0.0511
      2 C         142.3438  142.5475  161.3326 C.ar    1  UNL1        0.0163
      3 C         142.4551  142.2037  162.7884 C.ar    1  UNL1        0.0253
      4 C         143.8038  141.9763  163.4043 C.ar    1  UNL1        0.1365
      5 C         145.0411  142.0926  162.5644 C.ar    1  UNL1        0.1541
      6 O         146.3898  141.8652  163.1803 O.3     1  UNL1       -0.5039
      7 C         144.9297  142.4364  161.1086 C.ar    1  UNL1        0.0527
      8 H         146.4594  141.6504  164.0897 H       1  UNL1        0.2923
      9 C         144.3699  142.3426  158.0382 C.3     1  UNL1        0.1122
     10 N         143.4698  143.0076  159.0368 N.pl3   1  UNL1       -0.3040
     11 C         142.4582  144.0164  158.5797 C.3     1  UNL1        0.1122
     12 N         143.9151  141.6325  164.8601 N.2     1  UNL1       -0.1435
     13 N         142.7699  141.9143  165.7870 N.2     1  UNL1       -0.1284
     14 C         142.8813  141.5705  167.2428 C.ar    1  UNL1        0.1838
     15 C         142.3824  140.2465  167.7411 C.ar    1  UNL1        0.0406
     16 C         142.4938  139.9027  169.1969 C.ar    1  UNL1        0.0048
     17 C         143.1040  140.8830  170.1545 C.ar    1  UNL1        0.0208
     18 C         143.6027  142.2069  169.6562 C.ar    1  UNL1        0.1006
     19 N         143.4914  142.5507  168.2004 N.ar    1  UNL1       -0.2236
@<TRIPOS>BOND
     1     9    10    1
     2    10    11    1
     3    10     1    1
     4     1     2   ar
     5     2     3   ar
     6     3     4   ar
     7     4    12    1
     8    12    13    2
     9    13    14    1
    10    14    15   ar
    11    15    16   ar
    12    16    17   ar
    13    17    18   ar
    14    18    19   ar
    15     4     5   ar
    16     5     6    1
    17     5     7   ar
    18     7     1   ar
    19    19    14   ar
    20     6     8    1
@<TRIPOS>MOLECULE
*****
 19 20 0 0 0
SMALL
GASTEIGER

@<TRIPOS>ATOM
      1 C         141.0154  144.0148  163.5166 C.ar    1  UNL1        0.0511
      2 C         142.0606  143.5014  162.5711 C.ar    1  UNL1        0.0163
      3 C         142.1371  144.0402  161.1733 C.ar    1  UNL1        0.0253
      4 C         141.1685  145.0923  160.7209 C.ar    1  UNL1        0.1365
      5 C         140.1233  145.6056  161.6664 C.ar    1  UNL1        0.1541
      6 O         139.1545  146.6578  161.2140 O.3     1  UNL1       -0.5039
      7 C         140.0467  145.0669  163.0642 C.ar    1  UNL1        0.0527
      8 H         139.2023  146.9944  160.3409 H       1  UNL1        0.2923
      9 C         139.6815  143.6436  165.7150 C.3     1  UNL1        0.1122
     10 N         140.9388  143.4760  164.9144 N.pl3   1  UNL1       -0.3040
     11 C         142.1196  142.7697  165.5116 C.3     1  UNL1        0.1122
     12 N         141.2450  145.6310  159.3231 N.2     1  UNL1       -0.1435
     13 N         140.0292  145.6134  158.4449 N.2     1  UNL1       -0.1284
     14 C         140.1057  146.1522  157.0471 C.ar    1  UNL1        0.1838
     15 C         141.0648  145.5506  156.0630 C.ar    1  UNL1        0.0406
     16 C         141.1413  146.0894  154.6652 C.ar    1  UNL1        0.0048
     17 C         140.2589  147.2297  154.2515 C.ar    1  UNL1        0.0208
     18 C         139.2999  147.8312  155.2356 C.ar    1  UNL1        0.1006
     19 N         139.2233  147.2924  156.6334 N.ar    1  UNL1       -0.2236
@<TRIPOS>BOND
     1     9    10    1
     2    10    11    1
     3    10     1    1
     4     1     2   ar
     5     2     3   ar
     6     3     4   ar
     7     4    12    1
     8    12    13    2
     9    13    14    1
    10    14    15   ar
    11    15    16   ar
    12    16    17   ar
    13    17    18   ar
    14    18    19   ar
    15     4     5   ar
    16     5     6    1
    17     5     7   ar
    18     7     1   ar
    19    19    14   ar
    20     6     8    1
@<TRIPOS>MOLECULE
*****
 19 20 0 0 0
SMALL
GASTEIGER

@<TRIPOS>ATOM
      1 C         138.9372  138.8674  165.1079 C.ar    1  UNL1        0.0511
      2 C         138.1726  139.6582  164.0881 C.ar    1  UNL1        0.0163
      3 C         138.4637  139.4787  162.6276 C.ar    1  UNL1        0.0253
      4 C         139.5193  138.5085  162.1869 C.ar    1  UNL1        0.1365
      5 C         140.2838  137.7176  163.2067 C.ar    1  UNL1        0.1541
      6 O         141.3394  136.7473  162.7660 O.3     1  UNL1       -0.5039
      7 C         139.9927  137.8971  164.6672 C.ar    1  UNL1        0.0527
      8 H         141.5213  136.6352  161.8537 H       1  UNL1        0.2923
      9 C         137.4712  138.3518  167.1899 C.3     1  UNL1        0.1122
     10 N         138.6461  139.0468  166.5684 N.pl3   1  UNL1       -0.3040
     11 C         139.5300  139.9214  167.4074 C.3     1  UNL1        0.1122
     12 N         139.8103  138.3290  160.7264 N.2     1  UNL1       -0.1435
     13 N         141.1850  138.6090  160.1956 N.2     1  UNL1       -0.1284
     14 C         141.4761  138.4296  158.7351 C.ar    1  UNL1        0.1838
     15 C         142.6266  137.5712  158.2996 C.ar    1  UNL1        0.0406
     16 C         142.9176  137.3918  156.8391 C.ar    1  UNL1        0.0048
     17 C         142.0582  138.0706  155.8141 C.ar    1  UNL1        0.0208
     18 C         140.9077  138.9289  156.2497 C.ar    1  UNL1        0.1006
     19 N         140.6166  139.1084  157.7102 N.ar    1  UNL1       -0.2236
@<TRIPOS>BOND
     1     9    10    1
     2    10    11    1
     3    10     1    1
     4     1     2   ar
     5     2     3   ar
     6     3     4   ar
     7     4    12    1
     8    12    13    2
     9    13    14    1
    10    14    15   ar
    11    15    16   ar
    12    16    17   ar
    13    17    18   ar
    14    18    19   ar
    15     4     5   ar
    16     5     6    1
    17     5     7   ar
    18     7     1   ar
    19    19    14   ar
    20     6     8    1
@<TRIPOS>MOLECULE
*****
 19 20 0 0 0
SMALL
GASTEIGER

@<TRIPOS>ATOM
      1 C         140.7056  146.0221  156.6801 C.ar    1  UNL1        0.0511
      2 C         141.9792  145.2963  156.3621 C.ar    1  UNL1        0.0163
      3 C         142.7003  144.5400  157.4382 C.ar    1  UNL1        0.0253
      4 C         142.1479  144.5095  158.8324 C.ar    1  UNL1        0.1365
      5 C         140.8743  145.2353  159.1505 C.ar    1  UNL1        0.1541
      6 O         140.3218  145.2049  160.5447 O.3     1  UNL1       -0.5039
      7 C         140.1532  145.9916  158.0743 C.ar    1  UNL1        0.0527
      8 H         140.7722  144.7325  161.2169 H       1  UNL1        0.2923
      9 C         138.8766  147.7229  155.9648 C.3     1  UNL1        0.1122
     10 N         139.9845  146.7784  155.6040 N.pl3   1  UNL1       -0.3040
     11 C         140.3714  146.5901  154.1671 C.3     1  UNL1        0.1122
     12 N         142.8690  143.7533  159.9085 N.2     1  UNL1       -0.1435
     13 N         143.0690  144.3767  161.2580 N.2     1  UNL1       -0.1284
     14 C         143.7901  143.6204  162.3342 C.ar    1  UNL1        0.1838
     15 C         143.5279  143.9360  163.7770 C.ar    1  UNL1        0.0406
     16 C         144.2490  143.1797  164.8532 C.ar    1  UNL1        0.0048
     17 C         145.2323  142.1079  164.4864 C.ar    1  UNL1        0.0208
     18 C         145.4944  141.7924  163.0436 C.ar    1  UNL1        0.1006
     19 N         144.7733  142.5486  161.9675 N.ar    1  UNL1       -0.2236
@<TRIPOS>BOND
     1     9    10    1
     2    10    11    1
     3    10     1    1
     4     1     2   ar
     5     2     3   ar
     6     3     4   ar
     7     4    12    1
     8    12    13    2
     9    13    14    1
    10    14    15   ar
    11    15    16   ar
    12    16    17   ar
    13    17    18   ar
    14    18    19   ar
    15     4     5   ar
    16     5     6    1
    17     5     7   ar
    18     7     1   ar
    19    19    14   ar
    20     6     8    1
@<TRIPOS>MOLECULE
*****
 19 20 0 0 0
SMALL
GASTEIGER

@<TRIPOS>ATOM
      1 C         139.6518  138.0779  162.7687 C.ar    1  UNL1        0.0511
      2 C         140.7180  138.0825  161.7136 C.ar    1  UNL1        0.0163
      3 C         140.3950  138.5426  160.3229 C.ar    1  UNL1        0.0253
      4 C         139.0058  138.9980  159.9873 C.ar    1  UNL1        0.1365
      5 C         137.9396  138.9934  161.0424 C.ar    1  UNL1        0.1541
      6 O         136.5503  139.4489  160.7068 O.3     1  UNL1       -0.5039
      7 C         138.2626  138.5334  162.4331 C.ar    1  UNL1        0.0527
      8 H         136.3485  139.7363  159.8381 H       1  UNL1        0.2923
      9 C         138.9019  137.5860  165.2070 C.3     1  UNL1        0.1122
     10 N         139.9749  137.6179  164.1594 N.pl3   1  UNL1       -0.3040
     11 C         141.3709  137.1896  164.5024 C.3     1  UNL1        0.1122
     12 N         138.6827  139.4581  158.5966 N.2     1  UNL1       -0.1435
     13 N         137.6612  140.5351  158.3812 N.2     1  UNL1       -0.1284
     14 C         137.3382  140.9951  156.9905 C.ar    1  UNL1        0.1838
     15 C         137.1971  142.4598  156.6989 C.ar    1  UNL1        0.0406
     16 C         136.8741  142.9198  155.3082 C.ar    1  UNL1        0.0048
     17 C         136.6921  141.9152  154.2092 C.ar    1  UNL1        0.0208
     18 C         136.8332  140.4507  154.5009 C.ar    1  UNL1        0.1006
     19 N         137.1562  139.9906  155.8916 N.ar    1  UNL1       -0.2236
@<TRIPOS>BOND
     1     9    10    1
     2    10    11    1
     3    10     1    1
     4     1     2   ar
     5     2     3   ar
     6     3     4   ar
     7     4    12    1
     8    12    13    2
     9    13    14    1
    10    14    15   ar
    11    15    16   ar
    12    16    17   ar
    13    17    18   ar
    14    18    19   ar
    15     4     5   ar
    16     5     6    1
    17     5     7   ar
    18     7     1   ar
    19    19    14   ar
    20     6     8    1
@<TRIPOS>MOLECULE
*****
 19 20 0 0 0
SMALL
GASTEIGER

@<TRIPOS>ATOM
      1 C         142.9302  138.7620  159.7005 C.ar    1  UNL1        0.0511
      2 C         143.6132  139.9211  160.3637 C.ar    1  UNL1        0.0163
      3 C         143.5508  140.0755  161.8544 C.ar    1  UNL1        0.0253
      4 C         142.8053  139.0708  162.6819 C.ar    1  UNL1        0.1365
      5 C         142.1223  137.9117  162.0187 C.ar    1  UNL1        0.1541
      6 O         141.3768  136.9069  162.8462 O.3     1  UNL1       -0.5039
      7 C         142.1847  137.7573  160.5280 C.ar    1  UNL1        0.0527
      8 H         141.3378  137.0033  163.7775 H       1  UNL1        0.2923
      9 C         142.6046  137.3057  157.5737 C.3     1  UNL1        0.1122
     10 N         142.9926  138.6075  158.2097 N.pl3   1  UNL1       -0.3040
     11 C         143.4430  139.7550  157.3551 C.3     1  UNL1        0.1122
     12 N         142.7429  139.2252  164.1726 N.2     1  UNL1       -0.1435
     13 N         141.4177  139.3967  164.8541 N.2     1  UNL1       -0.1284
     14 C         141.3553  139.5511  166.3448 C.ar    1  UNL1        0.1838
     15 C         142.5846  139.3256  167.1743 C.ar    1  UNL1        0.0406
     16 C         142.5222  139.4800  168.6650 C.ar    1  UNL1        0.0048
     17 C         141.2305  139.8600  169.3262 C.ar    1  UNL1        0.0208
     18 C         140.0013  140.0855  168.4967 C.ar    1  UNL1        0.1006
     19 N         140.0637  139.9311  167.0060 N.ar    1  UNL1       -0.2236
@<TRIPOS>BOND
     1     9    10    1
     2    10    11    1
     3    10     1    1
     4     1     2   ar
     5     2     3   ar
     6     3     4   ar
     7     4    12    1
     8    12    13    2
     9    13    14    1
    10    14    15   ar
    11    15    16   ar
    12    16    17   ar
    13    17    18   ar
    14    18    19   ar
    15     4     5   ar
    16     5     6    1
    17     5     7   ar
    18     7     1   ar
    19    19    14   ar
    20     6     8    1
@<TRIPOS>MOLECULE
*****
 19 20 0 0 0
SMALL
GASTEIGER

@<TRIPOS>ATOM
      1 C         142.4809  132.9258  155.7103 C.ar    1  UNL1        0.0511
      2 C         143.0061  133.3666  157.0444 C.ar    1  UNL1        0.0163
      3 C         143.4495  134.7856  157.2442 C.ar    1  UNL1        0.0253
      4 C         143.3676  135.7638  156.1100 C.ar    1  UNL1        0.1365
      5 C         142.8423  135.3230  154.7760 C.ar    1  UNL1        0.1541
      6 O         142.7604  136.3012  153.6417 O.3     1  UNL1       -0.5039
      7 C         142.3989  133.9040  154.5761 C.ar    1  UNL1        0.0527
      8 H         143.0373  137.1876  153.7665 H       1  UNL1        0.2923
      9 C         140.8123  131.2114  154.6971 C.3     1  UNL1        0.1122
     10 N         142.0375  131.5069  155.5105 N.pl3   1  UNL1       -0.3040
     11 C         142.8193  130.3833  156.1239 C.3     1  UNL1        0.1122
     12 N         143.8110  137.1828  156.3099 N.2     1  UNL1       -0.1435
     13 N         144.5885  137.8839  155.2358 N.2     1  UNL1       -0.1284
     14 C         145.0319  139.3029  155.4357 C.ar    1  UNL1        0.1838
     15 C         145.5434  140.0997  154.2723 C.ar    1  UNL1        0.0406
     16 C         145.9868  141.5187  154.4721 C.ar    1  UNL1        0.0048
     17 C         145.9186  142.1408  155.8354 C.ar    1  UNL1        0.0208
     18 C         145.4071  141.3440  156.9987 C.ar    1  UNL1        0.1006
     19 N         144.9637  139.9250  156.7988 N.ar    1  UNL1       -0.2236
@<TRIPOS>BOND
     1     9    10    1
     2    10    11    1
     3    10     1    1
     4     1     2   ar
     5     2     3   ar
     6     3     4   ar
     7     4    12    1
     8    12    13    2
     9    13    14    1
    10    14    15   ar
    11    15    16   ar
    12    16    17   ar
    13    17    18   ar
    14    18    19   ar
    15     4     5   ar
    16     5     6    1
    17     5     7   ar
    18     7     1   ar
    19    19    14   ar
    20     6     8    1
