@<TRIPOS>MOLECULE
*****
 37 41 0 0 0
SMALL
GASTEIGER

@<TRIPOS>ATOM
      1 C         139.4493  141.8553  161.4363 C.ar    1  UNL1        0.0536
      2 C         138.9351  143.2640  161.4031 C.ar    1  UNL1        0.0042
      3 C         139.7073  144.3274  160.6798 C.ar    1  UNL1       -0.0041
      4 C         140.9936  143.9820  159.9898 C.ar    1  UNL1       -0.0208
      5 C         141.5078  142.5733  160.0230 C.ar    1  UNL1       -0.0041
      6 C         140.7357  141.5100  160.7463 C.ar    1  UNL1        0.0042
      7 C         140.8602  141.7039  169.2317 C.3     1  UNL1        0.0437
      8 C         139.8688  140.6274  168.9026 C.3     1  UNL1        0.1367
      9 C         139.9199  140.3485  170.3755 C.3     1  UNL1        0.0437
     10 C         140.0249  141.1315  167.4984 C.3     1  UNL1        0.0508
     11 C         139.1407  140.3082  166.6094 C.3     1  UNL1        0.0962
     12 C         139.9128  141.3716  165.8861 C.3     1  UNL1        0.0322
     13 C         139.7583  141.5328  164.4029 C.3     1  UNL1        0.0943
     14 N         138.8317  140.6307  163.6429 N.am    1  UNL1       -0.2761
     15 C         138.6772  140.7920  162.1595 C.2     1  UNL1        0.2490
     16 O         137.7506  139.8899  161.3995 O.2     1  UNL1       -0.2699
     17 C         138.0596  139.5674  164.3661 C.3     1  UNL1        0.0943
     18 C         138.2141  139.4061  165.8494 C.3     1  UNL1        0.0322
     19 C         138.4380  139.2954  167.4641 C.2     1  UNL1        0.3159
     20 O         137.4575  138.2660  166.9855 O.2     1  UNL1       -0.2501
     21 O         138.8880  139.4927  168.8814 O.3     1  UNL1       -0.4557
     22 C         141.7657  145.0454  159.2665 C.3     1  UNL1        0.0420
     23 C         141.3379  145.4824  157.8969 C.3     1  UNL1        0.0585
     24 C         142.0715  145.2133  156.6163 C.3     1  UNL1        0.0175
     25 C         141.2884  145.8298  155.4953 C.3     1  UNL1        0.0199
     26 C         140.0709  146.4799  156.0829 C.3     1  UNL1        0.0855
     27 N         140.1016  146.2651  157.5671 N.3     1  UNL1       -0.2971
     28 H         139.2743  145.7446  157.8587 H       1  UNL1        0.1233
     29 C         139.0094  147.2155  155.3202 C.3     1  UNL1        0.1470
     30 O         137.8159  146.4756  154.7927 O.3     1  UNL1       -0.3787
     31 H         137.2314  147.0945  154.3278 H       1  UNL1        0.2108
     32 C         139.1412  148.6911  155.0849 C.ar    1  UNL1        0.0055
     33 C         139.9734  149.1972  153.9442 C.ar    1  UNL1       -0.0019
     34 C         140.1053  150.6728  153.7090 C.ar    1  UNL1       -0.0002
     35 C         139.4050  151.6422  154.6144 C.ar    1  UNL1       -0.0000
     36 C         138.5728  151.1360  155.7551 C.ar    1  UNL1       -0.0002
     37 C         138.4409  149.6605  155.9904 C.ar    1  UNL1       -0.0019
@<TRIPOS>BOND
     1     7     8    1
     2     8     9    1
     3     8    10    1
     4    10    11    1
     5    11    12    1
     6    12    13    1
     7    13    14    1
     8    14    15   am
     9    15    16    2
    10    15     1    1
    11     1     2   ar
    12     2     3   ar
    13     3     4   ar
    14     4    22    1
    15    23    22    1
    16    23    24    1
    17    24    25    1
    18    26    25    1
    19    26    29    1
    20    29    30    1
    21    29    32    1
    22    32    33   ar
    23    33    34   ar
    24    34    35   ar
    25    35    36   ar
    26    36    37   ar
    27    26    27    1
    28     4     5   ar
    29     5     6   ar
    30    14    17    1
    31    17    18    1
    32    11    19    1
    33    19    20    2
    34    19    21    1
    35    21     8    1
    36    18    11    1
    37     6     1   ar
    38    27    23    1
    39    37    32   ar
    40    30    31    1
    41    27    28    1
@<TRIPOS>MOLECULE
*****
 37 41 0 0 0
SMALL
GASTEIGER

@<TRIPOS>ATOM
      1 C         140.3791  138.3412  161.9142 C.ar    1  UNL1        0.0536
      2 C         139.8373  139.1096  160.7455 C.ar    1  UNL1        0.0042
      3 C         140.6531  139.2456  159.4941 C.ar    1  UNL1       -0.0041
      4 C         142.0107  138.6131  159.4114 C.ar    1  UNL1       -0.0208
      5 C         142.5526  137.8447  160.5801 C.ar    1  UNL1       -0.0041
      6 C         141.7368  137.7087  161.8315 C.ar    1  UNL1        0.0042
      7 C         143.2976  142.4522  168.0268 C.3     1  UNL1        0.0437
      8 C         142.0532  141.7447  168.4750 C.3     1  UNL1        0.1367
      9 C         142.3454  142.3981  169.7932 C.3     1  UNL1        0.0437
     10 C         142.0211  141.2393  167.0630 C.3     1  UNL1        0.0508
     11 C         140.8180  140.3560  166.9140 C.3     1  UNL1        0.0962
     12 C         141.6337  140.4920  165.6626 C.3     1  UNL1        0.0322
     13 C         141.2155  139.7751  164.4132 C.3     1  UNL1        0.0943
     14 N         139.9816  138.9222  164.4151 N.am    1  UNL1       -0.2761
     15 C         139.5634  138.2052  163.1656 C.2     1  UNL1        0.2490
     16 O         138.3295  137.3523  163.1676 O.2     1  UNL1       -0.2699
     17 C         139.1658  138.7862  165.6665 C.3     1  UNL1        0.0943
     18 C         139.5840  139.5031  166.9160 C.3     1  UNL1        0.0322
     19 C         140.1064  140.3155  168.2339 C.2     1  UNL1        0.3159
     20 O         138.8517  139.5510  168.5360 O.2     1  UNL1       -0.2501
     21 O         140.8698  141.1738  169.1986 O.3     1  UNL1       -0.4557
     22 C         142.8264  138.7491  158.1600 C.3     1  UNL1        0.0420
     23 C         142.9515  137.5897  157.2166 C.3     1  UNL1        0.0585
     24 C         143.6868  137.5923  155.9090 C.3     1  UNL1        0.0175
     25 C         143.5530  136.2282  155.2994 C.3     1  UNL1        0.0199
     26 C         142.7351  135.3827  156.2301 C.3     1  UNL1        0.0855
     27 N         142.3634  136.2241  157.4149 N.3     1  UNL1       -0.2971
     28 H         142.7375  135.8066  158.2670 H       1  UNL1        0.1233
     29 C         142.3556  133.9478  156.0138 C.3     1  UNL1        0.1470
     30 O         141.1680  133.6060  155.1637 O.3     1  UNL1       -0.3787
     31 H         141.0629  132.6424  155.1274 H       1  UNL1        0.2108
     32 C         143.1637  132.8546  156.6477 C.ar    1  UNL1        0.0055
     33 C         142.7140  131.4280  156.5356 C.ar    1  UNL1       -0.0019
     34 C         143.5221  130.3348  157.1695 C.ar    1  UNL1       -0.0002
     35 C         144.7800  130.6682  157.9155 C.ar    1  UNL1       -0.0000
     36 C         145.2298  132.0947  158.0276 C.ar    1  UNL1       -0.0002
     37 C         144.4216  133.1879  157.3937 C.ar    1  UNL1       -0.0019
@<TRIPOS>BOND
     1     7     8    1
     2     8     9    1
     3     8    10    1
     4    10    11    1
     5    11    12    1
     6    12    13    1
     7    13    14    1
     8    14    15   am
     9    15    16    2
    10    15     1    1
    11     1     2   ar
    12     2     3   ar
    13     3     4   ar
    14     4    22    1
    15    23    22    1
    16    23    24    1
    17    24    25    1
    18    26    25    1
    19    26    29    1
    20    29    30    1
    21    29    32    1
    22    32    33   ar
    23    33    34   ar
    24    34    35   ar
    25    35    36   ar
    26    36    37   ar
    27    26    27    1
    28     4     5   ar
    29     5     6   ar
    30    14    17    1
    31    17    18    1
    32    11    19    1
    33    19    20    2
    34    19    21    1
    35    21     8    1
    36    18    11    1
    37     6     1   ar
    38    27    23    1
    39    37    32   ar
    40    30    31    1
    41    27    28    1
@<TRIPOS>MOLECULE
*****
 37 41 0 0 0
SMALL
GASTEIGER

@<TRIPOS>ATOM
      1 C         142.3411  138.4856  159.0459 C.ar    1  UNL1        0.0536
      2 C         143.4749  139.4637  159.1352 C.ar    1  UNL1        0.0042
      3 C         144.0865  139.7833  160.4671 C.ar    1  UNL1       -0.0041
      4 C         143.5644  139.1248  161.7096 C.ar    1  UNL1       -0.0208
      5 C         142.4306  138.1467  161.6202 C.ar    1  UNL1       -0.0041
      6 C         141.8190  137.8271  160.2884 C.ar    1  UNL1        0.0042
      7 C         144.6927  131.5151  156.1025 C.3     1  UNL1        0.0437
      8 C         143.7371  132.1469  155.1342 C.3     1  UNL1        0.1367
      9 C         143.9834  130.9079  154.3255 C.3     1  UNL1        0.0437
     10 C         143.6906  133.2539  156.1455 C.3     1  UNL1        0.0508
     11 C         142.7577  134.3109  155.6330 C.3     1  UNL1        0.0962
     12 C         143.3693  134.6305  156.9648 C.3     1  UNL1        0.0322
     13 C         143.0266  135.9155  157.6585 C.3     1  UNL1        0.0943
     14 N         142.0722  136.8809  157.0204 N.am    1  UNL1       -0.2761
     15 C         141.7295  138.1660  157.7141 C.2     1  UNL1        0.2490
     16 O         140.7752  139.1314  157.0759 O.2     1  UNL1       -0.2699
     17 C         141.4606  136.5613  155.6886 C.3     1  UNL1        0.0943
     18 C         141.8033  135.2763  154.9949 C.3     1  UNL1        0.0322
     19 C         142.2277  133.8571  154.3051 C.2     1  UNL1        0.3159
     20 O         141.2619  134.6089  153.4378 O.2     1  UNL1       -0.2501
     21 O         142.8330  132.5198  153.9968 O.3     1  UNL1       -0.4557
     22 C         144.1760  139.4444  163.0414 C.3     1  UNL1        0.0420
     23 C         143.3352  139.4003  164.2828 C.3     1  UNL1        0.0585
     24 C         143.7436  138.8192  165.6041 C.3     1  UNL1        0.0175
     25 C         142.5992  138.9893  166.5588 C.3     1  UNL1        0.0199
     26 C         141.4836  139.6755  165.8276 C.3     1  UNL1        0.0855
     27 N         141.9385  139.9295  164.4210 N.3     1  UNL1       -0.2971
     28 H         141.9273  140.9312  164.2292 H       1  UNL1        0.1233
     29 C         140.1477  140.0431  166.4022 C.3     1  UNL1        0.1470
     30 O         138.8890  139.5936  165.7214 O.3     1  UNL1       -0.3787
     31 H         138.1203  139.9137  166.2188 H       1  UNL1        0.2108
     32 C         140.0705  140.8603  167.6577 C.ar    1  UNL1        0.0055
     33 C         139.4551  140.2775  168.8953 C.ar    1  UNL1       -0.0019
     34 C         139.3780  141.0947  170.1508 C.ar    1  UNL1       -0.0002
     35 C         139.9162  142.4947  170.1687 C.ar    1  UNL1       -0.0000
     36 C         140.5316  143.0775  168.9312 C.ar    1  UNL1       -0.0002
     37 C         140.6088  142.2603  167.6757 C.ar    1  UNL1       -0.0019
@<TRIPOS>BOND
     1     7     8    1
     2     8     9    1
     3     8    10    1
     4    10    11    1
     5    11    12    1
     6    12    13    1
     7    13    14    1
     8    14    15   am
     9    15    16    2
    10    15     1    1
    11     1     2   ar
    12     2     3   ar
    13     3     4   ar
    14     4    22    1
    15    23    22    1
    16    23    24    1
    17    24    25    1
    18    26    25    1
    19    26    29    1
    20    29    30    1
    21    29    32    1
    22    32    33   ar
    23    33    34   ar
    24    34    35   ar
    25    35    36   ar
    26    36    37   ar
    27    26    27    1
    28     4     5   ar
    29     5     6   ar
    30    14    17    1
    31    17    18    1
    32    11    19    1
    33    19    20    2
    34    19    21    1
    35    21     8    1
    36    18    11    1
    37     6     1   ar
    38    27    23    1
    39    37    32   ar
    40    30    31    1
    41    27    28    1
@<TRIPOS>MOLECULE
*****
 37 41 0 0 0
SMALL
GASTEIGER

@<TRIPOS>ATOM
      1 C         140.1117  139.0678  157.1902 C.ar    1  UNL1        0.0536
      2 C         141.5937  139.2783  157.0937 C.ar    1  UNL1        0.0042
      3 C         142.4458  138.2865  156.3586 C.ar    1  UNL1       -0.0041
      4 C         141.8159  137.0843  155.7199 C.ar    1  UNL1       -0.0208
      5 C         140.3338  136.8739  155.8163 C.ar    1  UNL1       -0.0041
      6 C         139.4817  137.8656  156.5514 C.ar    1  UNL1        0.0042
      7 C         139.4852  137.5349  164.9386 C.3     1  UNL1        0.0437
      8 C         138.6923  138.7698  164.6283 C.3     1  UNL1        0.1367
      9 C         138.3845  138.7507  166.0962 C.3     1  UNL1        0.0437
     10 C         139.1659  138.5307  163.2252 C.3     1  UNL1        0.0508
     11 C         138.6014  139.6138  162.3545 C.3     1  UNL1        0.0962
     12 C         139.4535  138.6221  161.6194 C.3     1  UNL1        0.0322
     13 C         139.6728  138.7707  160.1430 C.3     1  UNL1        0.0943
     14 N         139.0401  139.9110  159.4017 N.am    1  UNL1       -0.2761
     15 C         139.2596  140.0595  157.9253 C.2     1  UNL1        0.2490
     16 O         138.6269  141.1998  157.1840 O.2     1  UNL1       -0.2699
     17 C         138.1880  140.9027  160.1368 C.3     1  UNL1        0.0943
     18 C         137.9687  140.7541  161.6132 C.3     1  UNL1        0.0322
     19 C         137.7788  140.5224  163.2195 C.2     1  UNL1        0.3159
     20 O         137.0314  141.7389  162.7598 O.2     1  UNL1       -0.2501
     21 O         137.8351  140.0007  164.6247 O.3     1  UNL1       -0.4557
     22 C         142.6680  136.0926  154.9848 C.3     1  UNL1        0.0420
     23 C         142.8673  134.7151  155.5439 C.3     1  UNL1        0.0585
     24 C         141.8591  133.6045  155.5326 C.3     1  UNL1        0.0175
     25 C         142.4786  132.4093  156.1942 C.3     1  UNL1        0.0199
     26 C         143.8697  132.7812  156.6144 C.3     1  UNL1        0.0855
     27 N         144.1099  134.2062  156.2125 N.3     1  UNL1       -0.2971
     28 H         144.8964  134.2553  155.5648 H       1  UNL1        0.1233
     29 C         144.8486  131.8853  157.3137 C.3     1  UNL1        0.1470
     30 O         145.9618  132.4792  158.1250 O.3     1  UNL1       -0.3787
     31 H         146.4990  131.7674  158.5066 H       1  UNL1        0.2108
     32 C         144.7143  130.3955  157.2018 C.ar    1  UNL1        0.0055
     33 C         144.3345  129.5842  158.4049 C.ar    1  UNL1       -0.0019
     34 C         144.2002  128.0944  158.2930 C.ar    1  UNL1       -0.0002
     35 C         144.4457  127.4159  156.9779 C.ar    1  UNL1       -0.0000
     36 C         144.8255  128.2273  155.7748 C.ar    1  UNL1       -0.0002
     37 C         144.9598  129.7170  155.8867 C.ar    1  UNL1       -0.0019
@<TRIPOS>BOND
     1     7     8    1
     2     8     9    1
     3     8    10    1
     4    10    11    1
     5    11    12    1
     6    12    13    1
     7    13    14    1
     8    14    15   am
     9    15    16    2
    10    15     1    1
    11     1     2   ar
    12     2     3   ar
    13     3     4   ar
    14     4    22    1
    15    23    22    1
    16    23    24    1
    17    24    25    1
    18    26    25    1
    19    26    29    1
    20    29    30    1
    21    29    32    1
    22    32    33   ar
    23    33    34   ar
    24    34    35   ar
    25    35    36   ar
    26    36    37   ar
    27    26    27    1
    28     4     5   ar
    29     5     6   ar
    30    14    17    1
    31    17    18    1
    32    11    19    1
    33    19    20    2
    34    19    21    1
    35    21     8    1
    36    18    11    1
    37     6     1   ar
    38    27    23    1
    39    37    32   ar
    40    30    31    1
    41    27    28    1
@<TRIPOS>MOLECULE
*****
 37 41 0 0 0
SMALL
GASTEIGER

@<TRIPOS>ATOM
      1 C         142.0810  138.6836  157.9874 C.ar    1  UNL1        0.0536
      2 C         141.6357  138.4455  159.3998 C.ar    1  UNL1        0.0042
      3 C         142.3140  139.1606  160.5306 C.ar    1  UNL1       -0.0041
      4 C         143.4376  140.1136  160.2489 C.ar    1  UNL1       -0.0208
      5 C         143.8828  140.3516  158.8365 C.ar    1  UNL1       -0.0041
      6 C         143.2046  139.6366  157.7057 C.ar    1  UNL1        0.0042
      7 C         145.1963  131.5607  156.4575 C.3     1  UNL1        0.0437
      8 C         144.0666  131.8055  155.5016 C.3     1  UNL1        0.1367
      9 C         144.4245  130.4467  154.9766 C.3     1  UNL1        0.0437
     10 C         143.9449  133.1132  156.2265 C.3     1  UNL1        0.0508
     11 C         142.8148  133.8821  155.6089 C.3     1  UNL1        0.0962
     12 C         143.4931  134.5971  156.7396 C.3     1  UNL1        0.0322
     13 C         143.0224  135.9592  157.1555 C.3     1  UNL1        0.0943
     14 N         141.8734  136.6064  156.4406 N.am    1  UNL1       -0.2761
     15 C         141.4027  137.9686  156.8566 C.2     1  UNL1        0.2490
     16 O         140.2537  138.6157  156.1417 O.2     1  UNL1       -0.2699
     17 C         141.1951  135.8914  155.3099 C.3     1  UNL1        0.0943
     18 C         141.6658  134.5293  154.8940 C.3     1  UNL1        0.0322
     19 C         142.2380  133.0497  154.5023 C.2     1  UNL1        0.3159
     20 O         141.0892  133.4334  153.6174 O.2     1  UNL1       -0.2501
     21 O         143.0116  131.7663  154.4360 O.3     1  UNL1       -0.4557
     22 C         144.1158  140.8286  161.3797 C.3     1  UNL1        0.0420
     23 C         143.8821  140.3869  162.7941 C.3     1  UNL1        0.0585
     24 C         144.7524  139.4524  163.5812 C.3     1  UNL1        0.0175
     25 C         144.1451  139.2902  164.9432 C.3     1  UNL1        0.0199
     26 C         142.8997  140.1244  164.9978 C.3     1  UNL1        0.0855
     27 N         142.7371  140.8022  163.6696 N.3     1  UNL1       -0.2971
     28 H         142.7461  141.8145  163.7942 H       1  UNL1        0.1233
     29 C         141.9786  140.2574  166.1742 C.3     1  UNL1        0.1470
     30 O         142.3696  141.1171  167.3395 O.3     1  UNL1       -0.3787
     31 H         141.6677  141.0934  168.0086 H       1  UNL1        0.2108
     32 C         140.6664  139.5307  166.1851 C.ar    1  UNL1        0.0055
     33 C         139.6231  139.8818  167.2041 C.ar    1  UNL1       -0.0019
     34 C         138.3109  139.1551  167.2151 C.ar    1  UNL1       -0.0002
     35 C         138.0420  138.0773  166.2071 C.ar    1  UNL1       -0.0000
     36 C         139.0853  137.7262  165.1881 C.ar    1  UNL1       -0.0002
     37 C         140.3975  138.4529  165.1772 C.ar    1  UNL1       -0.0019
@<TRIPOS>BOND
     1     7     8    1
     2     8     9    1
     3     8    10    1
     4    10    11    1
     5    11    12    1
     6    12    13    1
     7    13    14    1
     8    14    15   am
     9    15    16    2
    10    15     1    1
    11     1     2   ar
    12     2     3   ar
    13     3     4   ar
    14     4    22    1
    15    23    22    1
    16    23    24    1
    17    24    25    1
    18    26    25    1
    19    26    29    1
    20    29    30    1
    21    29    32    1
    22    32    33   ar
    23    33    34   ar
    24    34    35   ar
    25    35    36   ar
    26    36    37   ar
    27    26    27    1
    28     4     5   ar
    29     5     6   ar
    30    14    17    1
    31    17    18    1
    32    11    19    1
    33    19    20    2
    34    19    21    1
    35    21     8    1
    36    18    11    1
    37     6     1   ar
    38    27    23    1
    39    37    32   ar
    40    30    31    1
    41    27    28    1
@<TRIPOS>MOLECULE
*****
 37 41 0 0 0
SMALL
GASTEIGER

@<TRIPOS>ATOM
      1 C         142.3158  138.5235  159.2001 C.ar    1  UNL1        0.0536
      2 C         143.4456  139.5093  159.2429 C.ar    1  UNL1        0.0042
      3 C         144.1005  139.8431  160.5505 C.ar    1  UNL1       -0.0041
      4 C         143.6256  139.1912  161.8152 C.ar    1  UNL1       -0.0208
      5 C         142.4957  138.2055  161.7723 C.ar    1  UNL1       -0.0041
      6 C         141.8409  137.8716  160.4648 C.ar    1  UNL1        0.0042
      7 C         144.7336  131.6222  156.1493 C.3     1  UNL1        0.0437
      8 C         143.7243  132.2297  155.2209 C.3     1  UNL1        0.1367
      9 C         143.9714  130.9989  154.4000 C.3     1  UNL1        0.0437
     10 C         143.6882  133.3337  156.2359 C.3     1  UNL1        0.0508
     11 C         142.7082  134.3662  155.7632 C.3     1  UNL1        0.0962
     12 C         143.3631  134.7001  157.0707 C.3     1  UNL1        0.0322
     13 C         143.0140  135.9745  157.7804 C.3     1  UNL1        0.0943
     14 N         142.0100  136.9151  157.1827 N.am    1  UNL1       -0.2761
     15 C         141.6609  138.1897  157.8925 C.2     1  UNL1        0.2490
     16 O         140.6570  139.1303  157.2948 O.2     1  UNL1       -0.2699
     17 C         141.3551  136.5813  155.8752 C.3     1  UNL1        0.0943
     18 C         141.7042  135.3068  155.1654 C.3     1  UNL1        0.0322
     19 C         142.1386  133.9004  154.4560 C.2     1  UNL1        0.3159
     20 O         141.1199  134.6274  153.6292 O.2     1  UNL1       -0.2501
     21 O         142.7665  132.5801  154.1208 O.3     1  UNL1       -0.4557
     22 C         144.2804  139.5251  163.1227 C.3     1  UNL1        0.0420
     23 C         143.4694  139.5446  164.3843 C.3     1  UNL1        0.0585
     24 C         143.7186  138.7102  165.6058 C.3     1  UNL1        0.0175
     25 C         142.6699  139.0519  166.6224 C.3     1  UNL1        0.0199
     26 C         141.7726  140.0974  166.0293 C.3     1  UNL1        0.0855
     27 N         142.2667  140.4019  164.6462 N.3     1  UNL1       -0.2971
     28 H         142.5226  141.3870  164.5791 H       1  UNL1        0.1233
     29 C         140.5890  140.7277  166.7015 C.3     1  UNL1        0.1470
     30 O         140.2331  140.3450  168.1075 O.3     1  UNL1       -0.3787
     31 H         139.4484  140.8410  168.3888 H       1  UNL1        0.2108
     32 C         139.7613  141.7407  165.9675 C.ar    1  UNL1        0.0055
     33 C         138.6291  141.2918  165.0919 C.ar    1  UNL1       -0.0019
     34 C         137.8014  142.3049  164.3580 C.ar    1  UNL1       -0.0002
     35 C         138.1058  143.7668  164.4997 C.ar    1  UNL1       -0.0000
     36 C         139.2379  144.2157  165.3753 C.ar    1  UNL1       -0.0002
     37 C         140.0656  143.2027  166.1093 C.ar    1  UNL1       -0.0019
@<TRIPOS>BOND
     1     7     8    1
     2     8     9    1
     3     8    10    1
     4    10    11    1
     5    11    12    1
     6    12    13    1
     7    13    14    1
     8    14    15   am
     9    15    16    2
    10    15     1    1
    11     1     2   ar
    12     2     3   ar
    13     3     4   ar
    14     4    22    1
    15    23    22    1
    16    23    24    1
    17    24    25    1
    18    26    25    1
    19    26    29    1
    20    29    30    1
    21    29    32    1
    22    32    33   ar
    23    33    34   ar
    24    34    35   ar
    25    35    36   ar
    26    36    37   ar
    27    26    27    1
    28     4     5   ar
    29     5     6   ar
    30    14    17    1
    31    17    18    1
    32    11    19    1
    33    19    20    2
    34    19    21    1
    35    21     8    1
    36    18    11    1
    37     6     1   ar
    38    27    23    1
    39    37    32   ar
    40    30    31    1
    41    27    28    1
@<TRIPOS>MOLECULE
*****
 37 41 0 0 0
SMALL
GASTEIGER

@<TRIPOS>ATOM
      1 C         141.5931  139.2384  156.2303 C.ar    1  UNL1        0.0536
      2 C         142.7366  139.9499  155.5699 C.ar    1  UNL1        0.0042
      3 C         143.3414  141.1602  156.2175 C.ar    1  UNL1       -0.0041
      4 C         142.8027  141.6591  157.5255 C.ar    1  UNL1       -0.0208
      5 C         141.6592  140.9476  158.1859 C.ar    1  UNL1       -0.0041
      6 C         141.0544  139.7373  157.5384 C.ar    1  UNL1        0.0042
      7 C         145.2686  132.4855  158.1461 C.3     1  UNL1        0.0437
      8 C         144.1374  132.1681  157.2136 C.3     1  UNL1        0.1367
      9 C         144.6062  130.7529  157.3786 C.3     1  UNL1        0.0437
     10 C         143.9051  133.6498  157.2434 C.3     1  UNL1        0.0508
     11 C         142.7282  133.9523  156.3639 C.3     1  UNL1        0.0962
     12 C         143.3330  135.1626  157.0114 C.3     1  UNL1        0.0322
     13 C         142.7531  136.5212  156.7511 C.3     1  UNL1        0.0943
     14 N         141.5683  136.6695  155.8432 N.am    1  UNL1       -0.2761
     15 C         140.9883  138.0281  155.5828 C.2     1  UNL1        0.2490
     16 O         139.8035  138.1764  154.6749 O.2     1  UNL1       -0.2699
     17 C         140.9634  135.4592  155.1956 C.3     1  UNL1        0.0943
     18 C         141.5434  134.1006  155.4560 C.3     1  UNL1        0.0322
     19 C         142.2332  132.6576  155.7904 C.2     1  UNL1        0.3159
     20 O         141.0714  132.4943  154.8559 O.2     1  UNL1       -0.2501
     21 O         143.1041  131.5549  156.3155 O.3     1  UNL1       -0.4557
     22 C         143.4075  142.8694  158.1730 C.3     1  UNL1        0.0420
     23 C         142.5900  143.7042  159.1135 C.3     1  UNL1        0.0585
     24 C         141.5183  144.6786  158.7233 C.3     1  UNL1        0.0175
     25 C         140.9666  145.2879  159.9781 C.3     1  UNL1        0.0199
     26 C         141.6973  144.6901  161.1437 C.3     1  UNL1        0.0855
     27 N         142.7006  143.7114  160.6094 N.3     1  UNL1       -0.2971
     28 H         142.5043  142.7798  160.9755 H       1  UNL1        0.1233
     29 C         141.4653  145.0143  162.5898 C.3     1  UNL1        0.1470
     30 O         140.4746  146.0739  162.9713 O.3     1  UNL1       -0.3787
     31 H         140.4465  146.1575  163.9373 H       1  UNL1        0.2108
     32 C         142.2241  144.2787  163.6543 C.ar    1  UNL1        0.0055
     33 C         141.5609  143.1717  164.4189 C.ar    1  UNL1       -0.0019
     34 C         142.3198  142.4361  165.4834 C.ar    1  UNL1       -0.0002
     35 C         143.7417  142.8075  165.7833 C.ar    1  UNL1       -0.0000
     36 C         144.4049  143.9145  165.0187 C.ar    1  UNL1       -0.0002
     37 C         143.6461  144.6501  163.9542 C.ar    1  UNL1       -0.0019
@<TRIPOS>BOND
     1     7     8    1
     2     8     9    1
     3     8    10    1
     4    10    11    1
     5    11    12    1
     6    12    13    1
     7    13    14    1
     8    14    15   am
     9    15    16    2
    10    15     1    1
    11     1     2   ar
    12     2     3   ar
    13     3     4   ar
    14     4    22    1
    15    23    22    1
    16    23    24    1
    17    24    25    1
    18    26    25    1
    19    26    29    1
    20    29    30    1
    21    29    32    1
    22    32    33   ar
    23    33    34   ar
    24    34    35   ar
    25    35    36   ar
    26    36    37   ar
    27    26    27    1
    28     4     5   ar
    29     5     6   ar
    30    14    17    1
    31    17    18    1
    32    11    19    1
    33    19    20    2
    34    19    21    1
    35    21     8    1
    36    18    11    1
    37     6     1   ar
    38    27    23    1
    39    37    32   ar
    40    30    31    1
    41    27    28    1
@<TRIPOS>MOLECULE
*****
 37 41 0 0 0
SMALL
GASTEIGER

@<TRIPOS>ATOM
      1 C         141.5720  136.8648  155.8208 C.ar    1  UNL1        0.0536
      2 C         142.9131  137.5066  155.6223 C.ar    1  UNL1        0.0042
      3 C         143.3248  138.6651  156.4817 C.ar    1  UNL1       -0.0041
      4 C         142.3952  139.1817  157.5395 C.ar    1  UNL1       -0.0208
      5 C         141.0541  138.5399  157.7380 C.ar    1  UNL1       -0.0041
      6 C         140.6424  137.3815  156.8786 C.ar    1  UNL1        0.0042
      7 C         144.4726  129.9235  158.3081 C.3     1  UNL1        0.0437
      8 C         143.6476  129.6856  157.0781 C.3     1  UNL1        0.1367
      9 C         144.0333  128.2513  157.2880 C.3     1  UNL1        0.0437
     10 C         143.4344  131.1697  157.1254 C.3     1  UNL1        0.0508
     11 C         142.5583  131.5493  155.9685 C.3     1  UNL1        0.0962
     12 C         142.9700  132.7077  156.8278 C.3     1  UNL1        0.0322
     13 C         142.5040  134.0934  156.4921 C.3     1  UNL1        0.0943
     14 N         141.6263  134.3206  155.2971 N.am    1  UNL1       -0.2761
     15 C         141.1603  135.7064  154.9614 C.2     1  UNL1        0.2490
     16 O         140.2827  135.9336  153.7664 O.2     1  UNL1       -0.2699
     17 C         141.2147  133.1622  154.4378 C.3     1  UNL1        0.0943
     18 C         141.6807  131.7765  154.7734 C.3     1  UNL1        0.0322
     19 C         142.2300  130.2997  155.2062 C.2     1  UNL1        0.3159
     20 O         141.3781  130.2166  153.9745 O.2     1  UNL1       -0.2501
     21 O         142.9032  129.1480  155.8920 O.3     1  UNL1       -0.4557
     22 C         142.8069  140.3402  158.3989 C.3     1  UNL1        0.0420
     23 C         143.4139  140.0945  159.7484 C.3     1  UNL1        0.0585
     24 C         143.6546  138.7535  160.3760 C.3     1  UNL1        0.0175
     25 C         144.2763  138.9770  161.7228 C.3     1  UNL1        0.0199
     26 C         144.4198  140.4560  161.9275 C.3     1  UNL1        0.0855
     27 N         143.8868  141.1467  160.7072 N.3     1  UNL1       -0.2971
     28 H         144.6241  141.7030  160.2746 H       1  UNL1        0.1233
     29 C         144.9952  141.1265  163.1395 C.3     1  UNL1        0.1470
     30 O         146.3364  141.7937  163.0619 O.3     1  UNL1       -0.3787
     31 H         146.5584  142.1748  163.9258 H       1  UNL1        0.2108
     32 C         144.2294  141.1299  164.4293 C.ar    1  UNL1        0.0055
     33 C         143.9933  142.4196  165.1580 C.ar    1  UNL1       -0.0019
     34 C         143.2275  142.4229  166.4478 C.ar    1  UNL1       -0.0002
     35 C         142.6977  141.1366  167.0089 C.ar    1  UNL1       -0.0000
     36 C         142.9338  139.8470  166.2802 C.ar    1  UNL1       -0.0002
     37 C         143.6996  139.8436  164.9904 C.ar    1  UNL1       -0.0019
@<TRIPOS>BOND
     1     7     8    1
     2     8     9    1
     3     8    10    1
     4    10    11    1
     5    11    12    1
     6    12    13    1
     7    13    14    1
     8    14    15   am
     9    15    16    2
    10    15     1    1
    11     1     2   ar
    12     2     3   ar
    13     3     4   ar
    14     4    22    1
    15    23    22    1
    16    23    24    1
    17    24    25    1
    18    26    25    1
    19    26    29    1
    20    29    30    1
    21    29    32    1
    22    32    33   ar
    23    33    34   ar
    24    34    35   ar
    25    35    36   ar
    26    36    37   ar
    27    26    27    1
    28     4     5   ar
    29     5     6   ar
    30    14    17    1
    31    17    18    1
    32    11    19    1
    33    19    20    2
    34    19    21    1
    35    21     8    1
    36    18    11    1
    37     6     1   ar
    38    27    23    1
    39    37    32   ar
    40    30    31    1
    41    27    28    1
@<TRIPOS>MOLECULE
*****
 37 41 0 0 0
SMALL
GASTEIGER

@<TRIPOS>ATOM
      1 C         139.8542  143.4832  157.5468 C.ar    1  UNL1        0.0536
      2 C         138.6950  142.5334  157.6121 C.ar    1  UNL1        0.0042
      3 C         138.1040  142.1614  158.9397 C.ar    1  UNL1       -0.0041
      4 C         138.6722  142.7392  160.2019 C.ar    1  UNL1       -0.0208
      5 C         139.8313  143.6890  160.1367 C.ar    1  UNL1       -0.0041
      6 C         140.4223  144.0610  158.8091 C.ar    1  UNL1        0.0042
      7 C         138.3789  150.9783  155.4425 C.3     1  UNL1        0.0437
      8 C         139.1923  150.3282  154.3629 C.3     1  UNL1        0.1367
      9 C         139.0872  151.6672  153.6952 C.3     1  UNL1        0.0437
     10 C         139.1273  149.1250  155.2564 C.3     1  UNL1        0.0508
     11 C         139.8786  148.0111  154.5894 C.3     1  UNL1        0.0962
     12 C         139.2876  147.6392  155.9169 C.3     1  UNL1        0.0322
     13 C         139.4765  146.2539  156.4602 C.3     1  UNL1        0.0943
     14 N         140.2563  145.2405  155.6760 N.am    1  UNL1       -0.2761
     15 C         140.4452  143.8552  156.2193 C.2     1  UNL1        0.2490
     16 O         141.2250  142.8418  155.4351 O.2     1  UNL1       -0.2699
     17 C         140.8473  145.6125  154.3485 C.3     1  UNL1        0.0943
     18 C         140.6585  146.9978  153.8052 C.3     1  UNL1        0.0322
     19 C         140.4079  148.5259  153.2836 C.2     1  UNL1        0.3159
     20 O         141.2190  147.7457  152.2920 O.2     1  UNL1       -0.2501
     21 O         139.9838  149.9579  153.1437 O.3     1  UNL1       -0.4557
     22 C         138.0812  142.3672  161.5294 C.3     1  UNL1        0.0420
     23 C         138.6865  142.8980  162.7951 C.3     1  UNL1        0.0585
     24 C         138.4131  144.2395  163.4083 C.3     1  UNL1        0.0175
     25 C         139.2292  144.3510  164.6619 C.3     1  UNL1        0.0199
     26 C         140.0069  143.0786  164.8236 C.3     1  UNL1        0.0855
     27 N         139.6715  142.1806  163.6698 N.3     1  UNL1       -0.2971
     28 H         139.2606  141.3130  164.0145 H       1  UNL1        0.1233
     29 C         140.9536  142.7601  165.9425 C.3     1  UNL1        0.1470
     30 O         142.4118  143.0847  165.8065 O.3     1  UNL1       -0.3787
     31 H         142.8793  142.8162  166.6129 H       1  UNL1        0.2108
     32 C         140.4423  142.1170  167.1975 C.ar    1  UNL1        0.0055
     33 C         139.8028  140.7614  167.1387 C.ar    1  UNL1       -0.0019
     34 C         139.2914  140.1183  168.3937 C.ar    1  UNL1       -0.0002
     35 C         139.4196  140.8308  169.7075 C.ar    1  UNL1       -0.0000
     36 C         140.0591  142.1863  169.7662 C.ar    1  UNL1       -0.0002
     37 C         140.5704  142.8294  168.5113 C.ar    1  UNL1       -0.0019
@<TRIPOS>BOND
     1     7     8    1
     2     8     9    1
     3     8    10    1
     4    10    11    1
     5    11    12    1
     6    12    13    1
     7    13    14    1
     8    14    15   am
     9    15    16    2
    10    15     1    1
    11     1     2   ar
    12     2     3   ar
    13     3     4   ar
    14     4    22    1
    15    23    22    1
    16    23    24    1
    17    24    25    1
    18    26    25    1
    19    26    29    1
    20    29    30    1
    21    29    32    1
    22    32    33   ar
    23    33    34   ar
    24    34    35   ar
    25    35    36   ar
    26    36    37   ar
    27    26    27    1
    28     4     5   ar
    29     5     6   ar
    30    14    17    1
    31    17    18    1
    32    11    19    1
    33    19    20    2
    34    19    21    1
    35    21     8    1
    36    18    11    1
    37     6     1   ar
    38    27    23    1
    39    37    32   ar
    40    30    31    1
    41    27    28    1
