@<TRIPOS>MOLECULE
*****
 28 30 0 0 0
SMALL
GASTEIGER

@<TRIPOS>ATOM
      1 N         140.7802  143.2355  160.7199 N.am    1  UNL1       -0.2298
      2 C         141.8045  142.1414  160.7798 C.2     1  UNL1        0.3090
      3 O         142.4709  141.6681  159.5219 O.2     1  UNL1       -0.2522
      4 N         142.1626  141.5205  162.0975 N.am    1  UNL1       -0.2844
      5 H         141.7253  141.8310  162.9230 H       1  UNL1        0.1513
      6 C         140.1139  143.7086  161.9777 C.ar    1  UNL1        0.1386
      7 C         138.6202  143.6504  162.1028 C.ar    1  UNL1        0.0356
      8 C         137.9539  144.1236  163.3606 C.ar    1  UNL1        0.0158
      9 C         138.7812  144.6550  164.4934 C.ar    1  UNL1        0.0769
     10 CL        138.1149  145.1282  165.7512 Cl      1  UNL1       -0.0806
     11 C         140.2748  144.7133  164.3683 C.ar    1  UNL1        0.1116
     12 N         140.9412  144.2401  163.1105 N.ar    1  UNL1       -0.2279
     13 N         139.7060  145.0982  156.7669 N.3     1  UNL1       -0.2726
     14 C         139.1664  143.7467  157.1305 C.3     1  UNL1        0.0738
     15 C         139.5244  143.1258  158.4481 C.3     1  UNL1        0.0376
     16 C         140.4221  143.8564  159.4022 C.3     1  UNL1        0.0854
     17 C         140.9617  145.2079  159.0387 C.3     1  UNL1        0.0376
     18 C         140.6036  145.8288  157.7210 C.3     1  UNL1        0.0738
     19 C         138.7494  147.0938  155.4059 C.3     1  UNL1        0.0188
     20 C         139.3479  145.7191  155.4492 C.3     1  UNL1        0.0721
     21 C         143.1870  140.4263  162.1573 C.3     1  UNL1        0.1177
     22 C         143.4169  139.6835  163.4400 C.ar    1  UNL1       -0.0024
     23 C         142.2714  139.0009  164.1271 C.ar    1  UNL1       -0.0003
     24 C         142.5014  138.2581  165.4098 C.ar    1  UNL1        0.0294
     25 C         143.8768  138.1979  166.0055 C.ar    1  UNL1        0.1401
     26 F         144.1067  137.4551  167.2882 F       1  UNL1       -0.2042
     27 C         145.0221  138.8806  165.3184 C.ar    1  UNL1        0.0294
     28 C         144.7922  139.6234  164.0357 C.ar    1  UNL1       -0.0003
@<TRIPOS>BOND
     1    19    20    1
     2    20    13    1
     3    13    14    1
     4    14    15    1
     5    15    16    1
     6    16     1    1
     7     1     2   am
     8     2     3    2
     9     2     4   am
    10     4    21    1
    11    21    22    1
    12    22    23   ar
    13    23    24   ar
    14    24    25   ar
    15    25    26    1
    16    25    27   ar
    17    27    28   ar
    18     1     6    1
    19     6     7   ar
    20     7     8   ar
    21     8     9   ar
    22     9    10    1
    23     9    11   ar
    24    11    12   ar
    25    16    17    1
    26    17    18    1
    27    18    13    1
    28    28    22   ar
    29    12     6   ar
    30     4     5    1
@<TRIPOS>MOLECULE
*****
 28 30 0 0 0
SMALL
GASTEIGER

@<TRIPOS>ATOM
      1 N         140.4652  140.4512  162.0069 N.am    1  UNL1       -0.2298
      2 C         140.4019  139.7438  163.3280 C.2     1  UNL1        0.3090
      3 O         140.5986  138.2581  163.3935 O.2     1  UNL1       -0.2522
      4 N         140.1419  140.5219  164.5838 N.am    1  UNL1       -0.2844
      5 H         140.0129  141.4970  164.5409 H       1  UNL1        0.1513
      6 C         140.2686  141.9368  161.9415 C.ar    1  UNL1        0.1386
      7 C         141.2911  142.7996  161.2632 C.ar    1  UNL1        0.0356
      8 C         141.0945  144.2852  161.1978 C.ar    1  UNL1        0.0158
      9 C         139.8753  144.9081  161.8107 C.ar    1  UNL1        0.0769
     10 CL        139.6787  146.3937  161.7453 Cl      1  UNL1       -0.0806
     11 C         138.8527  144.0454  162.4889 C.ar    1  UNL1        0.1116
     12 N         139.0494  142.5597  162.5544 N.ar    1  UNL1       -0.2279
     13 N         141.2452  138.1168  158.2397 N.3     1  UNL1       -0.2726
     14 C         139.8475  138.5371  158.5857 C.3     1  UNL1        0.0738
     15 C         139.5875  139.3153  159.8415 C.3     1  UNL1        0.0376
     16 C         140.7252  139.6731  160.7512 C.3     1  UNL1        0.0854
     17 C         142.1229  139.2528  160.4051 C.3     1  UNL1        0.0376
     18 C         142.3829  138.4747  159.1493 C.3     1  UNL1        0.0738
     19 C         142.6804  136.4099  156.9069 C.3     1  UNL1        0.0188
     20 C         141.5052  137.3387  156.9839 C.3     1  UNL1        0.0721
     21 C         140.0786  139.8144  165.9050 C.3     1  UNL1        0.1177
     22 C         140.0279  140.6061  167.1780 C.ar    1  UNL1       -0.0024
     23 C         140.5428  142.0148  167.2062 C.ar    1  UNL1       -0.0003
     24 C         140.4921  142.8065  168.4792 C.ar    1  UNL1        0.0294
     25 C         139.9266  142.1895  169.7241 C.ar    1  UNL1        0.1401
     26 F         139.8759  142.9812  170.9972 F       1  UNL1       -0.2042
     27 C         139.4118  140.7810  169.6959 C.ar    1  UNL1        0.0294
     28 C         139.4625  139.9892  168.4229 C.ar    1  UNL1       -0.0003
@<TRIPOS>BOND
     1    19    20    1
     2    20    13    1
     3    13    14    1
     4    14    15    1
     5    15    16    1
     6    16     1    1
     7     1     2   am
     8     2     3    2
     9     2     4   am
    10     4    21    1
    11    21    22    1
    12    22    23   ar
    13    23    24   ar
    14    24    25   ar
    15    25    26    1
    16    25    27   ar
    17    27    28   ar
    18     1     6    1
    19     6     7   ar
    20     7     8   ar
    21     8     9   ar
    22     9    10    1
    23     9    11   ar
    24    11    12   ar
    25    16    17    1
    26    17    18    1
    27    18    13    1
    28    28    22   ar
    29    12     6   ar
    30     4     5    1
@<TRIPOS>MOLECULE
*****
 28 30 0 0 0
SMALL
GASTEIGER

@<TRIPOS>ATOM
      1 N         141.7581  142.4388  162.6141 N.am    1  UNL1       -0.2298
      2 C         142.5262  142.8511  163.8347 C.2     1  UNL1        0.3090
      3 O         143.3730  144.0889  163.8054 O.2     1  UNL1       -0.2522
      4 N         142.4476  142.0256  165.0847 N.am    1  UNL1       -0.2844
      5 H         141.8919  141.2132  165.1039 H       1  UNL1        0.1513
      6 C         140.9114  141.2010  162.6435 C.ar    1  UNL1        0.1386
      7 C         139.4283  141.3018  162.4423 C.ar    1  UNL1        0.0356
      8 C         138.5816  140.0640  162.4717 C.ar    1  UNL1        0.0158
      9 C         139.2179  138.7253  162.7022 C.ar    1  UNL1        0.0769
     10 CL        138.3711  137.4875  162.7315 Cl      1  UNL1       -0.0806
     11 C         140.7009  138.6245  162.9033 C.ar    1  UNL1        0.1116
     12 N         141.5477  139.8623  162.8740 N.ar    1  UNL1       -0.2279
     13 N         141.9938  144.9152  158.8642 N.3     1  UNL1       -0.2726
     14 C         142.8178  143.6685  158.9927 C.3     1  UNL1        0.0738
     15 C         142.7392  142.8430  160.2427 C.3     1  UNL1        0.0376
     16 C         141.8366  143.2643  161.3641 C.3     1  UNL1        0.0854
     17 C         141.0126  144.5110  161.2357 C.3     1  UNL1        0.0376
     18 C         141.0912  145.3365  159.9857 C.3     1  UNL1        0.0738
     19 C         140.8309  146.0185  156.8197 C.3     1  UNL1        0.0188
     20 C         142.0724  145.7407  157.6143 C.3     1  UNL1        0.0721
     21 C         143.2158  142.4380  166.3053 C.3     1  UNL1        0.1177
     22 C         142.5701  142.3668  167.6574 C.ar    1  UNL1       -0.0024
     23 C         143.4194  142.2654  168.8897 C.ar    1  UNL1       -0.0003
     24 C         142.7737  142.1942  170.2417 C.ar    1  UNL1        0.0294
     25 C         141.2788  142.2244  170.3615 C.ar    1  UNL1        0.1401
     26 F         140.6331  142.1532  171.7135 F       1  UNL1       -0.2042
     27 C         140.4296  142.3257  169.1292 C.ar    1  UNL1        0.0294
     28 C         141.0753  142.3970  167.7771 C.ar    1  UNL1       -0.0003
@<TRIPOS>BOND
     1    19    20    1
     2    20    13    1
     3    13    14    1
     4    14    15    1
     5    15    16    1
     6    16     1    1
     7     1     2   am
     8     2     3    2
     9     2     4   am
    10     4    21    1
    11    21    22    1
    12    22    23   ar
    13    23    24   ar
    14    24    25   ar
    15    25    26    1
    16    25    27   ar
    17    27    28   ar
    18     1     6    1
    19     6     7   ar
    20     7     8   ar
    21     8     9   ar
    22     9    10    1
    23     9    11   ar
    24    11    12   ar
    25    16    17    1
    26    17    18    1
    27    18    13    1
    28    28    22   ar
    29    12     6   ar
    30     4     5    1
@<TRIPOS>MOLECULE
*****
 28 30 0 0 0
SMALL
GASTEIGER

@<TRIPOS>ATOM
      1 N         141.4182  139.4994  160.1923 N.am    1  UNL1       -0.2298
      2 C         141.5524  138.8849  161.5540 C.2     1  UNL1        0.3090
      3 O         141.6117  137.3933  161.7013 O.2     1  UNL1       -0.2522
      4 N         141.6273  139.7620  162.7686 N.am    1  UNL1       -0.2844
      5 H         141.5884  140.7409  162.6720 H       1  UNL1        0.1513
      6 C         141.3588  140.9909  160.0451 C.ar    1  UNL1        0.1386
      7 C         142.4388  141.7142  159.2963 C.ar    1  UNL1        0.0356
      8 C         142.3795  143.2058  159.1491 C.ar    1  UNL1        0.0158
      9 C         141.2402  143.9741  159.7507 C.ar    1  UNL1        0.0769
     10 CL        141.1810  145.4657  159.6035 Cl      1  UNL1       -0.0806
     11 C         140.1603  143.2508  160.4994 C.ar    1  UNL1        0.1116
     12 N         140.2196  141.7592  160.6467 N.ar    1  UNL1       -0.2279
     13 N         141.1934  136.8681  156.5487 N.3     1  UNL1       -0.2726
     14 C         139.9652  137.5751  157.0402 C.3     1  UNL1        0.0738
     15 C         140.0401  138.4522  158.2547 C.3     1  UNL1        0.0376
     16 C         141.3433  138.6223  158.9778 C.3     1  UNL1        0.0854
     17 C         142.5715  137.9153  158.4863 C.3     1  UNL1        0.0376
     18 C         142.4966  137.0382  157.2717 C.3     1  UNL1        0.0738
     19 C         142.3630  135.6771  154.5578 C.3     1  UNL1        0.0188
     20 C         141.1185  135.9910  155.3341 C.3     1  UNL1        0.0721
     21 C         141.7616  139.1474  164.1304 C.3     1  UNL1        0.1177
     22 C         140.5403  138.9017  164.9660 C.ar    1  UNL1       -0.0024
     23 C         139.6772  137.7043  164.6987 C.ar    1  UNL1       -0.0003
     24 C         138.4560  137.4585  165.5343 C.ar    1  UNL1        0.0294
     25 C         138.0979  138.4102  166.6372 C.ar    1  UNL1        0.1401
     26 F         136.8767  138.1644  167.4728 F       1  UNL1       -0.2042
     27 C         138.9610  139.6075  166.9044 C.ar    1  UNL1        0.0294
     28 C         140.1822  139.8532  166.0688 C.ar    1  UNL1       -0.0003
@<TRIPOS>BOND
     1    19    20    1
     2    20    13    1
     3    13    14    1
     4    14    15    1
     5    15    16    1
     6    16     1    1
     7     1     2   am
     8     2     3    2
     9     2     4   am
    10     4    21    1
    11    21    22    1
    12    22    23   ar
    13    23    24   ar
    14    24    25   ar
    15    25    26    1
    16    25    27   ar
    17    27    28   ar
    18     1     6    1
    19     6     7   ar
    20     7     8   ar
    21     8     9   ar
    22     9    10    1
    23     9    11   ar
    24    11    12   ar
    25    16    17    1
    26    17    18    1
    27    18    13    1
    28    28    22   ar
    29    12     6   ar
    30     4     5    1
@<TRIPOS>MOLECULE
*****
 28 30 0 0 0
SMALL
GASTEIGER

@<TRIPOS>ATOM
      1 N         139.2639  139.4514  158.3561 N.am    1  UNL1       -0.2298
      2 C         138.9772  139.3985  159.8274 C.2     1  UNL1        0.3090
      3 O         139.6296  138.3520  160.6815 O.2     1  UNL1       -0.2522
      4 N         138.0381  140.3920  160.4447 N.am    1  UNL1       -0.2844
      5 H         137.6100  141.0788  159.8842 H       1  UNL1        0.1513
      6 C         138.6116  140.4978  157.5020 C.ar    1  UNL1        0.1386
      7 C         139.4345  141.6047  156.9123 C.ar    1  UNL1        0.0356
      8 C         138.7822  142.6511  156.0583 C.ar    1  UNL1        0.0158
      9 C         137.3069  142.5908  155.7939 C.ar    1  UNL1        0.0769
     10 CL        136.6545  143.6372  154.9399 Cl      1  UNL1       -0.0806
     11 C         136.4840  141.4839  156.3836 C.ar    1  UNL1        0.1116
     12 N         137.1363  140.4374  157.2376 N.ar    1  UNL1       -0.2279
     13 N         142.0812  136.4709  156.5041 N.3     1  UNL1       -0.2726
     14 C         140.6608  136.5556  156.0295 C.3     1  UNL1        0.0738
     15 C         139.7217  137.5491  156.6468 C.3     1  UNL1        0.0376
     16 C         140.2030  138.4579  157.7387 C.3     1  UNL1        0.0854
     17 C         141.6234  138.3733  158.2133 C.3     1  UNL1        0.0376
     18 C         142.5625  137.3798  157.5960 C.3     1  UNL1        0.0738
     19 C         143.7189  134.4691  156.7499 C.3     1  UNL1        0.0188
     20 C         143.0203  135.4774  155.8867 C.3     1  UNL1        0.0721
     21 C         137.7514  140.3390  161.9162 C.3     1  UNL1        0.1177
     22 C         137.9634  141.5569  162.7659 C.ar    1  UNL1       -0.0024
     23 C         138.3475  141.4075  164.2082 C.ar    1  UNL1       -0.0003
     24 C         138.5594  142.6253  165.0579 C.ar    1  UNL1        0.0294
     25 C         138.3873  143.9925  164.4653 C.ar    1  UNL1        0.1401
     26 F         138.5992  145.2103  165.3149 F       1  UNL1       -0.2042
     27 C         138.0032  144.1418  163.0230 C.ar    1  UNL1        0.0294
     28 C         137.7912  142.9240  162.1733 C.ar    1  UNL1       -0.0003
@<TRIPOS>BOND
     1    19    20    1
     2    20    13    1
     3    13    14    1
     4    14    15    1
     5    15    16    1
     6    16     1    1
     7     1     2   am
     8     2     3    2
     9     2     4   am
    10     4    21    1
    11    21    22    1
    12    22    23   ar
    13    23    24   ar
    14    24    25   ar
    15    25    26    1
    16    25    27   ar
    17    27    28   ar
    18     1     6    1
    19     6     7   ar
    20     7     8   ar
    21     8     9   ar
    22     9    10    1
    23     9    11   ar
    24    11    12   ar
    25    16    17    1
    26    17    18    1
    27    18    13    1
    28    28    22   ar
    29    12     6   ar
    30     4     5    1
@<TRIPOS>MOLECULE
*****
 28 30 0 0 0
SMALL
GASTEIGER

@<TRIPOS>ATOM
      1 N         140.9016  139.2168  159.6118 N.am    1  UNL1       -0.2298
      2 C         141.2616  140.6653  159.4630 C.2     1  UNL1        0.3090
      3 O         141.7697  141.1808  158.1491 O.2     1  UNL1       -0.2522
      4 N         141.1136  141.5984  160.6281 N.am    1  UNL1       -0.2844
      5 H         140.7802  141.2601  161.4904 H       1  UNL1        0.1513
      6 C         140.3936  138.7014  160.9256 C.ar    1  UNL1        0.1386
      7 C         138.9344  138.4003  161.0996 C.ar    1  UNL1        0.0356
      8 C         138.4264  137.8849  162.4134 C.ar    1  UNL1        0.0158
      9 C         139.3775  137.6705  163.5534 C.ar    1  UNL1        0.0769
     10 CL        138.8695  137.1551  164.8673 Cl      1  UNL1       -0.0806
     11 C         140.8367  137.9715  163.3794 C.ar    1  UNL1        0.1116
     12 N         141.3447  138.4870  162.0655 N.ar    1  UNL1       -0.2279
     13 N         141.3457  136.4175  156.1165 N.3     1  UNL1       -0.2726
     14 C         142.5022  136.6498  157.0430 C.3     1  UNL1        0.0738
     15 C         142.3542  137.5829  158.2081 C.3     1  UNL1        0.0376
     16 C         141.0497  138.2837  158.4467 C.3     1  UNL1        0.0854
     17 C         139.8931  138.0514  157.5202 C.3     1  UNL1        0.0376
     18 C         140.0411  137.1183  156.3551 C.3     1  UNL1        0.0738
     19 C         141.7424  134.0241  155.1870 C.3     1  UNL1        0.0188
     20 C         141.4937  135.4844  154.9514 C.3     1  UNL1        0.0721
     21 C         141.4736  143.0470  160.4793 C.3     1  UNL1        0.1177
     22 C         142.1682  143.7659  161.5977 C.ar    1  UNL1       -0.0024
     23 C         141.3905  144.6757  162.5017 C.ar    1  UNL1       -0.0003
     24 C         142.0850  145.3946  163.6201 C.ar    1  UNL1        0.0294
     25 C         143.5574  145.2036  163.8344 C.ar    1  UNL1        0.1401
     26 F         144.2519  145.9225  164.9528 F       1  UNL1       -0.2042
     27 C         144.3350  144.2938  162.9304 C.ar    1  UNL1        0.0294
     28 C         143.6405  143.5749  161.8120 C.ar    1  UNL1       -0.0003
@<TRIPOS>BOND
     1    19    20    1
     2    20    13    1
     3    13    14    1
     4    14    15    1
     5    15    16    1
     6    16     1    1
     7     1     2   am
     8     2     3    2
     9     2     4   am
    10     4    21    1
    11    21    22    1
    12    22    23   ar
    13    23    24   ar
    14    24    25   ar
    15    25    26    1
    16    25    27   ar
    17    27    28   ar
    18     1     6    1
    19     6     7   ar
    20     7     8   ar
    21     8     9   ar
    22     9    10    1
    23     9    11   ar
    24    11    12   ar
    25    16    17    1
    26    17    18    1
    27    18    13    1
    28    28    22   ar
    29    12     6   ar
    30     4     5    1
@<TRIPOS>MOLECULE
*****
 28 30 0 0 0
SMALL
GASTEIGER

@<TRIPOS>ATOM
      1 N         142.8197  141.6032  160.6270 N.am    1  UNL1       -0.2298
      2 C         142.8137  140.4724  161.6124 C.2     1  UNL1        0.3090
      3 O         143.6299  139.2420  161.3472 O.2     1  UNL1       -0.2522
      4 N         141.9917  140.5718  162.8632 N.am    1  UNL1       -0.2844
      5 H         141.4560  141.3792  163.0373 H       1  UNL1        0.1513
      6 C         142.0036  142.8334  160.8923 C.ar    1  UNL1        0.1386
      7 C         140.9827  143.2866  159.8910 C.ar    1  UNL1        0.0356
      8 C         140.1666  144.5169  160.1563 C.ar    1  UNL1        0.0158
      9 C         140.3713  145.2940  161.4228 C.ar    1  UNL1        0.0769
     10 CL        139.5551  146.5243  161.6881 Cl      1  UNL1       -0.0806
     11 C         141.3921  144.8408  162.4241 C.ar    1  UNL1        0.1116
     12 N         142.2082  143.6105  162.1588 N.ar    1  UNL1       -0.2279
     13 N         145.2858  141.3049  156.8748 N.3     1  UNL1       -0.2726
     14 C         144.1635  140.3389  157.1134 C.3     1  UNL1        0.0738
     15 C         143.3414  140.4383  158.3641 C.3     1  UNL1        0.0376
     16 C         143.6417  141.5038  159.3762 C.3     1  UNL1        0.0854
     17 C         144.7641  142.4698  159.1377 C.3     1  UNL1        0.0376
     18 C         145.5861  142.3704  157.8869 C.3     1  UNL1        0.0738
     19 C         147.3166  142.0765  155.4498 C.3     1  UNL1        0.0188
     20 C         146.1079  141.2055  155.6240 C.3     1  UNL1        0.0721
     21 C         141.9857  139.4409  163.8486 C.3     1  UNL1        0.1177
     22 C         140.7700  139.1849  164.6891 C.ar    1  UNL1       -0.0024
     23 C         140.3523  140.1835  165.7276 C.ar    1  UNL1       -0.0003
     24 C         139.1366  139.9275  166.5681 C.ar    1  UNL1        0.0294
     25 C         138.3385  138.6729  166.3702 C.ar    1  UNL1        0.1401
     26 F         137.1228  138.4169  167.2107 F       1  UNL1       -0.2042
     27 C         138.7562  137.6743  165.3317 C.ar    1  UNL1        0.0294
     28 C         139.9720  137.9303  164.4912 C.ar    1  UNL1       -0.0003
@<TRIPOS>BOND
     1    19    20    1
     2    20    13    1
     3    13    14    1
     4    14    15    1
     5    15    16    1
     6    16     1    1
     7     1     2   am
     8     2     3    2
     9     2     4   am
    10     4    21    1
    11    21    22    1
    12    22    23   ar
    13    23    24   ar
    14    24    25   ar
    15    25    26    1
    16    25    27   ar
    17    27    28   ar
    18     1     6    1
    19     6     7   ar
    20     7     8   ar
    21     8     9   ar
    22     9    10    1
    23     9    11   ar
    24    11    12   ar
    25    16    17    1
    26    17    18    1
    27    18    13    1
    28    28    22   ar
    29    12     6   ar
    30     4     5    1
@<TRIPOS>MOLECULE
*****
 28 30 0 0 0
SMALL
GASTEIGER

@<TRIPOS>ATOM
      1 N         139.9545  140.8804  163.8054 N.am    1  UNL1       -0.2298
      2 C         139.7143  139.7460  162.8540 C.2     1  UNL1        0.3090
      3 O         139.7896  138.3294  163.3415 O.2     1  UNL1       -0.2522
      4 N         139.3989  140.0280  161.4149 N.am    1  UNL1       -0.2844
      5 H         139.3494  140.9577  161.0949 H       1  UNL1        0.1513
      6 C         139.8792  142.2969  163.3178 C.ar    1  UNL1        0.1386
      7 C         139.0397  143.2995  164.0528 C.ar    1  UNL1        0.0356
      8 C         138.9644  144.7160  163.5652 C.ar    1  UNL1        0.0158
      9 C         139.7286  145.1300  162.3426 C.ar    1  UNL1        0.0769
     10 CL        139.6532  146.5466  161.8551 Cl      1  UNL1       -0.0806
     11 C         140.5680  144.1275  161.6077 C.ar    1  UNL1        0.1116
     12 N         140.6434  142.7109  162.0953 N.ar    1  UNL1       -0.2279
     13 N         140.9009  140.0342  168.1226 N.3     1  UNL1       -0.2726
     14 C         142.0043  140.3770  167.1662 C.3     1  UNL1        0.0738
     15 C         141.6889  140.6591  165.7271 C.3     1  UNL1        0.0376
     16 C         140.2700  140.5983  165.2445 C.3     1  UNL1        0.0854
     17 C         139.1665  140.2555  166.2010 C.3     1  UNL1        0.0376
     18 C         139.4820  139.9734  167.6400 C.3     1  UNL1        0.0738
     19 C         140.2123  140.0778  170.6274 C.3     1  UNL1        0.0188
     20 C         141.2164  139.7521  169.5617 C.3     1  UNL1        0.0721
     21 C         139.1587  138.8935  160.4634 C.3     1  UNL1        0.1177
     22 C         140.2334  138.4808  159.5018 C.ar    1  UNL1       -0.0024
     23 C         139.8861  138.1746  158.0751 C.ar    1  UNL1       -0.0003
     24 C         140.9608  137.7619  157.1135 C.ar    1  UNL1        0.0294
     25 C         142.3829  137.6554  157.5787 C.ar    1  UNL1        0.1401
     26 F         143.4577  137.2427  156.6171 F       1  UNL1       -0.2042
     27 C         142.7302  137.9617  159.0054 C.ar    1  UNL1        0.0294
     28 C         141.6555  138.3744  159.9670 C.ar    1  UNL1       -0.0003
@<TRIPOS>BOND
     1    19    20    1
     2    20    13    1
     3    13    14    1
     4    14    15    1
     5    15    16    1
     6    16     1    1
     7     1     2   am
     8     2     3    2
     9     2     4   am
    10     4    21    1
    11    21    22    1
    12    22    23   ar
    13    23    24   ar
    14    24    25   ar
    15    25    26    1
    16    25    27   ar
    17    27    28   ar
    18     1     6    1
    19     6     7   ar
    20     7     8   ar
    21     8     9   ar
    22     9    10    1
    23     9    11   ar
    24    11    12   ar
    25    16    17    1
    26    17    18    1
    27    18    13    1
    28    28    22   ar
    29    12     6   ar
    30     4     5    1
@<TRIPOS>MOLECULE
*****
 28 30 0 0 0
SMALL
GASTEIGER

@<TRIPOS>ATOM
      1 N         143.7037  141.7992  159.6151 N.am    1  UNL1       -0.2298
      2 C         142.4223  142.5744  159.5319 C.2     1  UNL1        0.3090
      3 O         142.0357  143.2487  158.2489 O.2     1  UNL1       -0.2522
      4 N         141.5275  142.6754  160.7315 N.am    1  UNL1       -0.2844
      5 H         141.7813  142.2328  161.5735 H       1  UNL1        0.1513
      6 C         144.0903  141.1249  160.8980 C.ar    1  UNL1        0.1386
      7 C         144.9174  141.8589  161.9115 C.ar    1  UNL1        0.0356
      8 C         145.3040  141.1846  163.1944 C.ar    1  UNL1        0.0158
      9 C         144.8635  139.7763  163.4639 C.ar    1  UNL1        0.0769
     10 CL        145.2502  139.1020  164.7468 Cl      1  UNL1       -0.0806
     11 C         144.0364  139.0423  162.4504 C.ar    1  UNL1        0.1116
     12 N         143.6498  139.7166  161.1675 N.ar    1  UNL1       -0.2279
     13 N         146.3881  141.4962  156.0162 N.3     1  UNL1       -0.2726
     14 C         145.2632  140.5206  156.1971 C.3     1  UNL1        0.0738
     15 C         144.3684  140.6216  157.3967 C.3     1  UNL1        0.0376
     16 C         144.5985  141.6982  158.4155 C.3     1  UNL1        0.0854
     17 C         145.7234  142.6738  158.2346 C.3     1  UNL1        0.0376
     18 C         146.6182  142.5728  157.0349 C.3     1  UNL1        0.0738
     19 C         148.7041  141.8678  154.8990 C.3     1  UNL1        0.0188
     20 C         147.2829  141.3952  154.8165 C.3     1  UNL1        0.0721
     21 C         140.2461  143.4507  160.6482 C.3     1  UNL1        0.1177
     22 C         139.4605  143.7371  161.8935 C.ar    1  UNL1       -0.0024
     23 C         138.1600  143.0311  162.1389 C.ar    1  UNL1       -0.0003
     24 C         137.3744  143.3175  163.3843 C.ar    1  UNL1        0.0294
     25 C         137.8894  144.3100  164.3842 C.ar    1  UNL1        0.1401
     26 F         137.1038  144.5964  165.6295 F       1  UNL1       -0.2042
     27 C         139.1899  145.0160  164.1388 C.ar    1  UNL1        0.0294
     28 C         139.9754  144.7296  162.8935 C.ar    1  UNL1       -0.0003
@<TRIPOS>BOND
     1    19    20    1
     2    20    13    1
     3    13    14    1
     4    14    15    1
     5    15    16    1
     6    16     1    1
     7     1     2   am
     8     2     3    2
     9     2     4   am
    10     4    21    1
    11    21    22    1
    12    22    23   ar
    13    23    24   ar
    14    24    25   ar
    15    25    26    1
    16    25    27   ar
    17    27    28   ar
    18     1     6    1
    19     6     7   ar
    20     7     8   ar
    21     8     9   ar
    22     9    10    1
    23     9    11   ar
    24    11    12   ar
    25    16    17    1
    26    17    18    1
    27    18    13    1
    28    28    22   ar
    29    12     6   ar
    30     4     5    1
