@<TRIPOS>MOLECULE
*****
 38 43 0 0 0
SMALL
GASTEIGER

@<TRIPOS>ATOM
      1 C         141.7235  139.5160  160.9483 C.2     1  UNL1        0.2495
      2 O         142.4319  140.3297  161.9905 O.2     1  UNL1       -0.2698
      3 N         140.4678  138.7750  161.3007 N.am    1  UNL1       -0.2804
      4 H         140.0029  138.2409  160.6167 H       1  UNL1        0.1552
      5 C         143.9130  139.2249  155.3696 C.3     1  UNL1        0.0317
      6 C         143.3656  139.2976  156.7643 C.ar    1  UNL1       -0.0142
      7 C         143.4456  140.5818  157.5353 C.ar    1  UNL1       -0.0035
      8 C         142.8983  140.6546  158.9299 C.ar    1  UNL1        0.0042
      9 C         142.2709  139.4432  159.5537 C.ar    1  UNL1        0.0543
     10 C         142.1909  138.1590  158.7826 C.ar    1  UNL1        0.0124
     11 C         142.7383  138.0863  157.3879 C.ar    1  UNL1        0.0382
     12 C         142.6583  136.8021  156.6169 C.1     1  UNL1       -0.0585
     13 C         142.5784  135.5179  155.8458 C.1     1  UNL1       -0.0388
     14 C         142.4985  134.2338  155.0747 C.ar    1  UNL1        0.1451
     15 C         141.5663  133.9461  153.9353 C.ar    1  UNL1        0.1281
     16 N         141.8284  132.5464  153.4641 N.ar    1  UNL1       -0.2228
     17 C         142.9226  131.9690  154.3123 C.ar    1  UNL1        0.1646
     18 C         143.5953  130.6283  154.3068 C.ar    1  UNL1        0.0405
     19 C         144.6821  130.3306  155.2968 C.ar    1  UNL1        0.0256
     20 C         145.0963  131.3735  156.2922 C.ar    1  UNL1        0.1207
     21 N         144.4236  132.7141  156.2977 N.ar    1  UNL1       -0.1616
     22 N         143.3367  133.0119  155.3077 N.ar    1  UNL1       -0.2030
     23 C         139.9204  138.8478  162.6954 C.ar    1  UNL1        0.0514
     24 C         139.9982  137.6501  163.5951 C.ar    1  UNL1        0.0145
     25 C         139.4508  137.7229  164.9897 C.ar    1  UNL1       -0.0008
     26 C         138.8256  138.9933  165.4847 C.ar    1  UNL1        0.0045
     27 C         138.7477  140.1910  164.5851 C.ar    1  UNL1        0.0562
     28 CL        138.1225  141.4615  165.0799 Cl      1  UNL1       -0.0825
     29 C         139.2952  140.1182  163.1904 C.ar    1  UNL1        0.0258
     30 C         138.2782  139.0661  166.8794 C.3     1  UNL1        0.1003
     31 N         139.1317  139.5957  167.9934 N.3     1  UNL1       -0.2633
     32 C         140.5929  139.9228  167.9054 C.3     1  UNL1        0.0987
     33 C         141.0382  140.4205  169.2485 C.2     1  UNL1        0.0177
     34 C         142.2165  140.9303  170.0243 C.2     1  UNL1        0.1165
     35 N         141.7586  141.2258  171.4218 N.2     1  UNL1       -0.1513
     36 N         140.2974  140.8987  171.5097 N.2     1  UNL1       -0.1708
     37 C         139.8522  140.4010  170.1666 C.3     1  UNL1        0.1621
     38 C         138.6739  139.8912  169.3909 C.3     1  UNL1        0.1034
@<TRIPOS>BOND
     1     5     6    1
     2     6     7   ar
     3     7     8   ar
     4     8     9   ar
     5     9     1    1
     6     1     2    2
     7     1     3   am
     8     3    23    1
     9    23    24   ar
    10    24    25   ar
    11    25    26   ar
    12    26    30    1
    13    30    31    1
    14    31    32    1
    15    32    33    1
    16    33    34    2
    17    34    35    1
    18    35    36    2
    19    36    37    1
    20    37    38    1
    21    26    27   ar
    22    27    28    1
    23    27    29   ar
    24     9    10   ar
    25    10    11   ar
    26    11    12    1
    27    12    13    3
    28    13    14    1
    29    14    15   ar
    30    15    16   ar
    31    16    17   ar
    32    17    18   ar
    33    18    19   ar
    34    19    20   ar
    35    20    21   ar
    36    21    22   ar
    37    11     6   ar
    38    22    14   ar
    39    29    23   ar
    40    22    17   ar
    41    38    31    1
    42    37    33    1
    43     3     4    1
@<TRIPOS>MOLECULE
*****
 38 43 0 0 0
SMALL
GASTEIGER

@<TRIPOS>ATOM
      1 C         142.7451  140.1241  160.2919 C.2     1  UNL1        0.2495
      2 O         143.8939  141.0885  160.2723 O.2     1  UNL1       -0.2698
      3 N         142.0059  139.8639  161.5709 N.am    1  UNL1       -0.2804
      4 H         141.2519  139.2309  161.5837 H       1  UNL1        0.1552
      5 C         141.1070  137.3073  155.2538 C.3     1  UNL1        0.0317
      6 C         141.5165  138.0115  156.5133 C.ar    1  UNL1       -0.0142
      7 C         141.0067  139.3928  156.8000 C.ar    1  UNL1       -0.0035
      8 C         141.4162  140.0970  158.0595 C.ar    1  UNL1        0.0042
      9 C         142.3356  139.4199  159.0324 C.ar    1  UNL1        0.0543
     10 C         142.8453  138.0386  158.7457 C.ar    1  UNL1        0.0124
     11 C         142.4358  137.3345  157.4861 C.ar    1  UNL1        0.0382
     12 C         142.9456  135.9532  157.1994 C.1     1  UNL1       -0.0585
     13 C         143.4555  134.5719  156.9127 C.1     1  UNL1       -0.0388
     14 C         143.9652  133.1906  156.6260 C.ar    1  UNL1        0.1451
     15 C         144.8167  132.3581  157.5381 C.ar    1  UNL1        0.1281
     16 N         145.0907  131.0523  156.8526 N.ar    1  UNL1       -0.2228
     17 C         144.4086  131.0778  155.5169 C.ar    1  UNL1        0.1646
     18 C         144.3310  130.0684  154.4101 C.ar    1  UNL1        0.0405
     19 C         143.5577  130.3806  153.1633 C.ar    1  UNL1        0.0256
     20 C         142.8621  131.7021  153.0233 C.ar    1  UNL1        0.1207
     21 N         142.9397  132.7115  154.1301 N.ar    1  UNL1       -0.1616
     22 N         143.7130  132.3994  155.3769 N.ar    1  UNL1       -0.2030
     23 C         142.4154  140.5680  162.8304 C.ar    1  UNL1        0.0514
     24 C         143.0735  139.8008  163.9386 C.ar    1  UNL1        0.0145
     25 C         143.4831  140.5050  165.1982 C.ar    1  UNL1       -0.0008
     26 C         143.2345  141.9765  165.3495 C.ar    1  UNL1        0.0045
     27 C         142.5764  142.7438  164.2413 C.ar    1  UNL1        0.0562
     28 CL        142.3278  144.2153  164.3925 Cl      1  UNL1       -0.0825
     29 C         142.1669  142.0395  162.9818 C.ar    1  UNL1        0.0258
     30 C         143.6440  142.6806  166.6090 C.3     1  UNL1        0.1003
     31 N         142.8291  142.5184  167.8579 N.3     1  UNL1       -0.2633
     32 C         141.3321  142.4623  167.9326 C.3     1  UNL1        0.0987
     33 C         140.9459  142.2930  169.3721 C.2     1  UNL1        0.0177
     34 C         139.7820  142.1537  170.3080 C.2     1  UNL1        0.1165
     35 N         140.3210  142.0191  171.7013 N.2     1  UNL1       -0.1513
     36 N         141.8181  142.0752  171.6265 N.2     1  UNL1       -0.1708
     37 C         142.2043  142.2445  170.1870 C.3     1  UNL1        0.1621
     38 C         143.3682  142.3838  169.2511 C.3     1  UNL1        0.1034
@<TRIPOS>BOND
     1     5     6    1
     2     6     7   ar
     3     7     8   ar
     4     8     9   ar
     5     9     1    1
     6     1     2    2
     7     1     3   am
     8     3    23    1
     9    23    24   ar
    10    24    25   ar
    11    25    26   ar
    12    26    30    1
    13    30    31    1
    14    31    32    1
    15    32    33    1
    16    33    34    2
    17    34    35    1
    18    35    36    2
    19    36    37    1
    20    37    38    1
    21    26    27   ar
    22    27    28    1
    23    27    29   ar
    24     9    10   ar
    25    10    11   ar
    26    11    12    1
    27    12    13    3
    28    13    14    1
    29    14    15   ar
    30    15    16   ar
    31    16    17   ar
    32    17    18   ar
    33    18    19   ar
    34    19    20   ar
    35    20    21   ar
    36    21    22   ar
    37    11     6   ar
    38    22    14   ar
    39    29    23   ar
    40    22    17   ar
    41    38    31    1
    42    37    33    1
    43     3     4    1
@<TRIPOS>MOLECULE
*****
 38 43 0 0 0
SMALL
GASTEIGER

@<TRIPOS>ATOM
      1 C         139.8888  141.1700  161.2074 C.2     1  UNL1        0.2495
      2 O         140.2245  142.3417  162.0817 O.2     1  UNL1       -0.2698
      3 N         140.2608  139.7820  161.6377 N.am    1  UNL1       -0.2804
      4 H         140.0404  139.0131  161.0638 H       1  UNL1        0.1552
      5 C         137.0573  142.0352  155.9887 C.3     1  UNL1        0.0317
      6 C         137.7651  141.8189  157.2934 C.ar    1  UNL1       -0.0142
      7 C         137.4447  140.6159  158.1301 C.ar    1  UNL1       -0.0035
      8 C         138.1525  140.3995  159.4347 C.ar    1  UNL1        0.0042
      9 C         139.1809  141.3863  159.9027 C.ar    1  UNL1        0.0543
     10 C         139.5013  142.5893  159.0660 C.ar    1  UNL1        0.0124
     11 C         138.7934  142.8056  157.7614 C.ar    1  UNL1        0.0382
     12 C         139.1138  144.0086  156.9247 C.1     1  UNL1       -0.0585
     13 C         139.4343  145.2117  156.0879 C.1     1  UNL1       -0.0388
     14 C         139.7547  146.4147  155.2512 C.ar    1  UNL1        0.1451
     15 C         140.5335  146.4150  153.9692 C.ar    1  UNL1        0.1281
     16 N         140.6126  147.8291  153.4754 N.ar    1  UNL1       -0.2228
     17 C         139.8828  148.7028  154.4521 C.ar    1  UNL1        0.1646
     18 C         139.6325  150.1814  154.4839 C.ar    1  UNL1        0.0405
     19 C         138.8520  150.7858  155.6132 C.ar    1  UNL1        0.0256
     20 C         138.3218  149.9116  156.7108 C.ar    1  UNL1        0.1207
     21 N         138.5721  148.4330  156.6790 N.ar    1  UNL1       -0.1616
     22 N         139.3525  147.8286  155.5497 N.ar    1  UNL1       -0.2030
     23 C         140.9687  139.5658  162.9423 C.ar    1  UNL1        0.0514
     24 C         140.1843  139.2179  164.1726 C.ar    1  UNL1        0.0145
     25 C         140.8922  139.0016  165.4773 C.ar    1  UNL1       -0.0008
     26 C         142.3845  139.1332  165.5517 C.ar    1  UNL1        0.0045
     27 C         143.1690  139.4811  164.3214 C.ar    1  UNL1        0.0562
     28 CL        144.6613  139.6127  164.3957 Cl      1  UNL1       -0.0825
     29 C         142.4611  139.6974  163.0167 C.ar    1  UNL1        0.0258
     30 C         143.0924  138.9169  166.8563 C.3     1  UNL1        0.1003
     31 N         142.7713  139.7850  168.0367 N.3     1  UNL1       -0.2633
     32 C         142.8685  141.2811  168.0832 C.3     1  UNL1        0.0987
     33 C         142.4539  141.7301  169.4531 C.2     1  UNL1        0.0177
     34 C         142.2577  142.9323  170.3284 C.2     1  UNL1        0.1165
     35 N         141.7831  142.4567  171.6695 N.2     1  UNL1       -0.1513
     36 N         141.6859  140.9606  171.6230 N.2     1  UNL1       -0.1708
     37 C         142.1005  140.5115  170.2532 C.3     1  UNL1        0.1621
     38 C         142.2967  139.3094  169.3778 C.3     1  UNL1        0.1034
@<TRIPOS>BOND
     1     5     6    1
     2     6     7   ar
     3     7     8   ar
     4     8     9   ar
     5     9     1    1
     6     1     2    2
     7     1     3   am
     8     3    23    1
     9    23    24   ar
    10    24    25   ar
    11    25    26   ar
    12    26    30    1
    13    30    31    1
    14    31    32    1
    15    32    33    1
    16    33    34    2
    17    34    35    1
    18    35    36    2
    19    36    37    1
    20    37    38    1
    21    26    27   ar
    22    27    28    1
    23    27    29   ar
    24     9    10   ar
    25    10    11   ar
    26    11    12    1
    27    12    13    3
    28    13    14    1
    29    14    15   ar
    30    15    16   ar
    31    16    17   ar
    32    17    18   ar
    33    18    19   ar
    34    19    20   ar
    35    20    21   ar
    36    21    22   ar
    37    11     6   ar
    38    22    14   ar
    39    29    23   ar
    40    22    17   ar
    41    38    31    1
    42    37    33    1
    43     3     4    1
@<TRIPOS>MOLECULE
*****
 38 43 0 0 0
SMALL
GASTEIGER

@<TRIPOS>ATOM
      1 C         143.5540  141.1036  159.9323 C.2     1  UNL1        0.2495
      2 O         144.2867  142.3803  160.2213 O.2     1  UNL1       -0.2698
      3 N         142.9024  140.3434  161.0491 N.am    1  UNL1       -0.2804
      4 H         142.4215  139.5055  160.8594 H       1  UNL1        0.1552
      5 C         143.2298  139.0381  154.3083 C.3     1  UNL1        0.0317
      6 C         143.3108  139.5545  155.7143 C.ar    1  UNL1       -0.0142
      7 C         143.5497  141.0140  155.9646 C.ar    1  UNL1       -0.0035
      8 C         143.6308  141.5304  157.3705 C.ar    1  UNL1        0.0042
      9 C         143.4729  140.5873  158.5263 C.ar    1  UNL1        0.0543
     10 C         143.2340  139.1277  158.2759 C.ar    1  UNL1        0.0124
     11 C         143.1530  138.6114  156.8699 C.ar    1  UNL1        0.0382
     12 C         142.9141  137.1518  156.6196 C.1     1  UNL1       -0.0585
     13 C         142.6753  135.6923  156.3692 C.1     1  UNL1       -0.0388
     14 C         142.4364  134.2327  156.1188 C.ar    1  UNL1        0.1451
     15 C         141.3455  133.6509  155.2694 C.ar    1  UNL1        0.1281
     16 N         141.4814  132.1573  155.2996 N.ar    1  UNL1       -0.2228
     17 C         142.6562  131.8162  156.1676 C.ar    1  UNL1        0.1646
     18 C         143.2648  130.5032  156.5623 C.ar    1  UNL1        0.0405
     19 C         144.4635  130.4730  157.4634 C.ar    1  UNL1        0.0256
     20 C         145.0538  131.7557  157.9697 C.ar    1  UNL1        0.1207
     21 N         144.4452  133.0686  157.5749 N.ar    1  UNL1       -0.1616
     22 N         143.2464  133.0988  156.6739 N.ar    1  UNL1       -0.2030
     23 C         142.9834  140.8597  162.4551 C.ar    1  UNL1        0.0514
     24 C         144.0161  140.3140  163.3962 C.ar    1  UNL1        0.0145
     25 C         144.0972  140.8304  164.8022 C.ar    1  UNL1       -0.0008
     26 C         143.1455  141.8925  165.2671 C.ar    1  UNL1        0.0045
     27 C         142.1127  142.4383  164.3261 C.ar    1  UNL1        0.0562
     28 CL        141.1611  143.5004  164.7909 Cl      1  UNL1       -0.0825
     29 C         142.0318  141.9219  162.9201 C.ar    1  UNL1        0.0258
     30 C         143.2265  142.4089  166.6731 C.3     1  UNL1        0.1003
     31 N         142.3651  141.8075  167.7438 N.3     1  UNL1       -0.2633
     32 C         142.5332  141.9992  169.2219 C.3     1  UNL1        0.0987
     33 C         141.4564  141.2190  169.9159 C.2     1  UNL1        0.0177
     34 C         140.8947  140.8553  171.2584 C.2     1  UNL1        0.1165
     35 N         139.7140  139.9567  171.0389 N.2     1  UNL1       -0.1513
     36 N         139.5458  139.7651  169.5607 N.2     1  UNL1       -0.1708
     37 C         140.6227  140.5452  168.8667 C.3     1  UNL1        0.1621
     38 C         141.1843  140.9089  167.5242 C.3     1  UNL1        0.1034
@<TRIPOS>BOND
     1     5     6    1
     2     6     7   ar
     3     7     8   ar
     4     8     9   ar
     5     9     1    1
     6     1     2    2
     7     1     3   am
     8     3    23    1
     9    23    24   ar
    10    24    25   ar
    11    25    26   ar
    12    26    30    1
    13    30    31    1
    14    31    32    1
    15    32    33    1
    16    33    34    2
    17    34    35    1
    18    35    36    2
    19    36    37    1
    20    37    38    1
    21    26    27   ar
    22    27    28    1
    23    27    29   ar
    24     9    10   ar
    25    10    11   ar
    26    11    12    1
    27    12    13    3
    28    13    14    1
    29    14    15   ar
    30    15    16   ar
    31    16    17   ar
    32    17    18   ar
    33    18    19   ar
    34    19    20   ar
    35    20    21   ar
    36    21    22   ar
    37    11     6   ar
    38    22    14   ar
    39    29    23   ar
    40    22    17   ar
    41    38    31    1
    42    37    33    1
    43     3     4    1
@<TRIPOS>MOLECULE
*****
 38 43 0 0 0
SMALL
GASTEIGER

@<TRIPOS>ATOM
      1 C         142.8843  139.5264  160.3421 C.2     1  UNL1        0.2495
      2 O         142.0576  138.7368  161.3133 O.2     1  UNL1       -0.2698
      3 N         143.6355  140.7382  160.8081 N.am    1  UNL1       -0.2804
      4 H         144.1780  141.2564  160.1706 H       1  UNL1        0.1552
      5 C         143.1860  137.8371  154.5926 C.3     1  UNL1        0.0317
      6 C         143.1106  138.2594  156.0300 C.ar    1  UNL1       -0.0142
      7 C         143.3171  139.6981  156.4008 C.ar    1  UNL1       -0.0035
      8 C         143.2417  140.1205  157.8381 C.ar    1  UNL1        0.0042
      9 C         142.9597  139.1041  158.9047 C.ar    1  UNL1        0.0543
     10 C         142.7532  137.6654  158.5339 C.ar    1  UNL1        0.0124
     11 C         142.8287  137.2431  157.0965 C.ar    1  UNL1        0.0382
     12 C         142.6222  135.8044  156.7257 C.1     1  UNL1       -0.0585
     13 C         142.4157  134.3656  156.3549 C.1     1  UNL1       -0.0388
     14 C         142.2092  132.9269  155.9840 C.ar    1  UNL1        0.1451
     15 C         141.2099  132.4063  154.9940 C.ar    1  UNL1        0.1281
     16 N         141.3489  130.9139  154.9362 N.ar    1  UNL1       -0.2228
     17 C         142.4341  130.5122  155.8906 C.ar    1  UNL1        0.1646
     18 C         143.0069  129.1742  156.2536 C.ar    1  UNL1        0.0405
     19 C         144.1113  129.0804  157.2642 C.ar    1  UNL1        0.0256
     20 C         144.6431  130.3245  157.9118 C.ar    1  UNL1        0.1207
     21 N         144.0703  131.6625  157.5488 N.ar    1  UNL1       -0.1616
     22 N         142.9659  131.7563  156.5382 N.ar    1  UNL1       -0.2030
     23 C         143.5600  141.1605  162.2454 C.ar    1  UNL1        0.0514
     24 C         144.3574  140.4297  163.2847 C.ar    1  UNL1        0.0145
     25 C         144.2819  140.8521  164.7221 C.ar    1  UNL1       -0.0008
     26 C         143.4091  142.0052  165.1202 C.ar    1  UNL1        0.0045
     27 C         142.6117  142.7360  164.0809 C.ar    1  UNL1        0.0562
     28 CL        141.7388  143.8891  164.4789 Cl      1  UNL1       -0.0825
     29 C         142.6872  142.3136  162.6435 C.ar    1  UNL1        0.0258
     30 C         143.3336  142.4275  166.5575 C.3     1  UNL1        0.1003
     31 N         142.3280  141.7950  167.4732 N.3     1  UNL1       -0.2633
     32 C         142.3871  141.7801  168.9720 C.3     1  UNL1        0.0987
     33 C         141.1823  141.0422  169.4760 C.2     1  UNL1        0.0177
     34 C         140.4742  140.5770  170.7138 C.2     1  UNL1        0.1165
     35 N         139.2330  139.8483  170.2916 N.2     1  UNL1       -0.1513
     36 N         139.1739  139.8632  168.7929 N.2     1  UNL1       -0.1708
     37 C         140.3786  140.6011  168.2888 C.3     1  UNL1        0.1621
     38 C         141.0867  141.0663  167.0510 C.3     1  UNL1        0.1034
@<TRIPOS>BOND
     1     5     6    1
     2     6     7   ar
     3     7     8   ar
     4     8     9   ar
     5     9     1    1
     6     1     2    2
     7     1     3   am
     8     3    23    1
     9    23    24   ar
    10    24    25   ar
    11    25    26   ar
    12    26    30    1
    13    30    31    1
    14    31    32    1
    15    32    33    1
    16    33    34    2
    17    34    35    1
    18    35    36    2
    19    36    37    1
    20    37    38    1
    21    26    27   ar
    22    27    28    1
    23    27    29   ar
    24     9    10   ar
    25    10    11   ar
    26    11    12    1
    27    12    13    3
    28    13    14    1
    29    14    15   ar
    30    15    16   ar
    31    16    17   ar
    32    17    18   ar
    33    18    19   ar
    34    19    20   ar
    35    20    21   ar
    36    21    22   ar
    37    11     6   ar
    38    22    14   ar
    39    29    23   ar
    40    22    17   ar
    41    38    31    1
    42    37    33    1
    43     3     4    1
@<TRIPOS>MOLECULE
*****
 38 43 0 0 0
SMALL
GASTEIGER

@<TRIPOS>ATOM
      1 C         138.8602  139.3736  159.8771 C.2     1  UNL1        0.2495
      2 O         137.5346  139.9582  160.2661 O.2     1  UNL1       -0.2698
      3 N         139.8261  138.9337  160.9370 N.am    1  UNL1       -0.2804
      4 H         140.6960  138.5500  160.6817 H       1  UNL1        0.1552
      5 C         140.2989  138.7955  154.0809 C.3     1  UNL1        0.0317
      6 C         139.9392  138.9400  155.5299 C.ar    1  UNL1       -0.0142
      7 C         139.3051  140.2070  156.0225 C.ar    1  UNL1       -0.0035
      8 C         138.9454  140.3515  157.4715 C.ar    1  UNL1        0.0042
      9 C         139.2199  139.2291  158.4280 C.ar    1  UNL1        0.0543
     10 C         139.8540  137.9622  157.9354 C.ar    1  UNL1        0.0124
     11 C         140.2137  137.8176  156.4864 C.ar    1  UNL1        0.0382
     12 C         140.8479  136.5507  155.9938 C.1     1  UNL1       -0.0585
     13 C         141.4820  135.2836  155.5012 C.1     1  UNL1       -0.0388
     14 C         142.1161  134.0167  155.0086 C.ar    1  UNL1        0.1451
     15 C         141.8567  133.3570  153.6867 C.ar    1  UNL1        0.1281
     16 N         142.7013  132.1196  153.6125 N.ar    1  UNL1       -0.2228
     17 C         143.4827  132.0146  154.8886 C.ar    1  UNL1        0.1646
     18 C         144.4769  131.0028  155.3763 C.ar    1  UNL1        0.0405
     19 C         145.1094  131.1635  156.7269 C.ar    1  UNL1        0.0256
     20 C         144.7477  132.3360  157.5897 C.ar    1  UNL1        0.1207
     21 N         143.7536  133.3478  157.1020 N.ar    1  UNL1       -0.1616
     22 N         143.1211  133.1871  155.7514 N.ar    1  UNL1       -0.2030
     23 C         139.4664  139.0782  162.3861 C.ar    1  UNL1        0.0514
     24 C         139.2102  137.8584  163.2206 C.ar    1  UNL1        0.0145
     25 C         138.8506  138.0029  164.6696 C.ar    1  UNL1       -0.0008
     26 C         138.7470  139.3673  165.2842 C.ar    1  UNL1        0.0045
     27 C         139.0032  140.5872  164.4498 C.ar    1  UNL1        0.0562
     28 CL        138.8997  141.9515  165.0643 Cl      1  UNL1       -0.0825
     29 C         139.3629  140.4426  163.0007 C.ar    1  UNL1        0.0258
     30 C         138.3874  139.5118  166.7333 C.3     1  UNL1        0.1003
     31 N         139.4545  139.8083  167.7449 N.3     1  UNL1       -0.2633
     32 C         139.2288  140.2241  169.1683 C.3     1  UNL1        0.0987
     33 C         140.5694  140.4138  169.8139 C.2     1  UNL1        0.0177
     34 C         141.2584  140.7881  171.0926 C.2     1  UNL1        0.1165
     35 N         142.7385  140.7208  170.8585 N.2     1  UNL1       -0.1513
     36 N         142.9642  140.3050  169.4351 N.2     1  UNL1       -0.1708
     37 C         141.6236  140.1153  168.7895 C.3     1  UNL1        0.1621
     38 C         140.9345  139.7410  167.5108 C.3     1  UNL1        0.1034
@<TRIPOS>BOND
     1     5     6    1
     2     6     7   ar
     3     7     8   ar
     4     8     9   ar
     5     9     1    1
     6     1     2    2
     7     1     3   am
     8     3    23    1
     9    23    24   ar
    10    24    25   ar
    11    25    26   ar
    12    26    30    1
    13    30    31    1
    14    31    32    1
    15    32    33    1
    16    33    34    2
    17    34    35    1
    18    35    36    2
    19    36    37    1
    20    37    38    1
    21    26    27   ar
    22    27    28    1
    23    27    29   ar
    24     9    10   ar
    25    10    11   ar
    26    11    12    1
    27    12    13    3
    28    13    14    1
    29    14    15   ar
    30    15    16   ar
    31    16    17   ar
    32    17    18   ar
    33    18    19   ar
    34    19    20   ar
    35    20    21   ar
    36    21    22   ar
    37    11     6   ar
    38    22    14   ar
    39    29    23   ar
    40    22    17   ar
    41    38    31    1
    42    37    33    1
    43     3     4    1
@<TRIPOS>MOLECULE
*****
 38 43 0 0 0
SMALL
GASTEIGER

@<TRIPOS>ATOM
      1 C         142.3070  138.4766  160.2183 C.2     1  UNL1        0.2495
      2 O         143.7618  138.5315  160.5798 O.2     1  UNL1       -0.2698
      3 N         141.2630  138.6614  161.2794 N.am    1  UNL1       -0.2804
      4 H         140.3082  138.6254  161.0421 H       1  UNL1        0.1552
      5 C         140.6640  137.5177  154.5278 C.3     1  UNL1        0.0317
      6 C         141.0747  137.7574  155.9504 C.ar    1  UNL1       -0.0142
      7 C         142.3087  137.1014  156.4955 C.ar    1  UNL1       -0.0035
      8 C         142.7194  137.3411  157.9181 C.ar    1  UNL1        0.0042
      9 C         141.8963  138.2369  158.7957 C.ar    1  UNL1        0.0543
     10 C         140.6624  138.8928  158.2506 C.ar    1  UNL1        0.0124
     11 C         140.2516  138.6531  156.8280 C.ar    1  UNL1        0.0382
     12 C         139.0177  139.3091  156.2829 C.1     1  UNL1       -0.0585
     13 C         137.7838  139.9650  155.7377 C.1     1  UNL1       -0.0388
     14 C         136.5498  140.6210  155.1926 C.ar    1  UNL1        0.1451
     15 C         136.4882  141.5326  154.0030 C.ar    1  UNL1        0.1281
     16 N         135.0612  141.9555  153.8166 N.ar    1  UNL1       -0.2228
     17 C         134.2409  141.3053  154.8910 C.ar    1  UNL1        0.1646
     18 C         132.7750  141.3577  155.2048 C.ar    1  UNL1        0.0405
     19 C         132.2293  140.5853  156.3691 C.ar    1  UNL1        0.0256
     20 C         133.1493  139.7605  157.2195 C.ar    1  UNL1        0.1207
     21 N         134.6152  139.7081  156.9057 N.ar    1  UNL1       -0.1616
     22 N         135.1609  140.4805  155.7414 N.ar    1  UNL1       -0.2030
     23 C         141.6737  138.9012  162.7020 C.ar    1  UNL1        0.0514
     24 C         141.4309  137.8466  163.7406 C.ar    1  UNL1        0.0145
     25 C         141.8416  138.0864  165.1632 C.ar    1  UNL1       -0.0008
     26 C         142.4952  139.3807  165.5472 C.ar    1  UNL1        0.0045
     27 C         142.7381  140.4353  164.5086 C.ar    1  UNL1        0.0562
     28 CL        143.3917  141.7297  164.8924 Cl      1  UNL1       -0.0825
     29 C         142.3273  140.1955  163.0859 C.ar    1  UNL1        0.0258
     30 C         142.9059  139.6205  166.9698 C.3     1  UNL1        0.1003
     31 N         142.0231  140.4212  167.8805 N.3     1  UNL1       -0.2633
     32 C         142.1669  141.8824  168.1872 C.3     1  UNL1        0.0987
     33 C         141.0742  142.2656  169.1407 C.2     1  UNL1        0.0177
     34 C         140.4877  143.4055  169.9195 C.2     1  UNL1        0.1165
     35 N         139.3061  142.8856  170.6834 N.2     1  UNL1       -0.1513
     36 N         139.1623  141.4244  170.3767 N.2     1  UNL1       -0.1708
     37 C         140.2550  141.0412  169.4233 C.3     1  UNL1        0.1621
     38 C         140.8416  139.9013  168.6445 C.3     1  UNL1        0.1034
@<TRIPOS>BOND
     1     5     6    1
     2     6     7   ar
     3     7     8   ar
     4     8     9   ar
     5     9     1    1
     6     1     2    2
     7     1     3   am
     8     3    23    1
     9    23    24   ar
    10    24    25   ar
    11    25    26   ar
    12    26    30    1
    13    30    31    1
    14    31    32    1
    15    32    33    1
    16    33    34    2
    17    34    35    1
    18    35    36    2
    19    36    37    1
    20    37    38    1
    21    26    27   ar
    22    27    28    1
    23    27    29   ar
    24     9    10   ar
    25    10    11   ar
    26    11    12    1
    27    12    13    3
    28    13    14    1
    29    14    15   ar
    30    15    16   ar
    31    16    17   ar
    32    17    18   ar
    33    18    19   ar
    34    19    20   ar
    35    20    21   ar
    36    21    22   ar
    37    11     6   ar
    38    22    14   ar
    39    29    23   ar
    40    22    17   ar
    41    38    31    1
    42    37    33    1
    43     3     4    1
@<TRIPOS>MOLECULE
*****
 38 43 0 0 0
SMALL
GASTEIGER

@<TRIPOS>ATOM
      1 C         142.7886  138.8160  160.3788 C.2     1  UNL1        0.2495
      2 O         144.1348  138.3446  160.8431 O.2     1  UNL1       -0.2698
      3 N         141.7612  139.2549  161.3797 N.am    1  UNL1       -0.2804
      4 H         140.8777  139.5643  161.0749 H       1  UNL1        0.1552
      5 C         141.5134  138.9462  154.5173 C.3     1  UNL1        0.0317
      6 C         141.8322  138.9136  155.9826 C.ar    1  UNL1       -0.0142
      7 C         141.7327  140.1675  156.7999 C.ar    1  UNL1       -0.0035
      8 C         142.0514  140.1350  158.2652 C.ar    1  UNL1        0.0042
      9 C         142.4698  138.8486  158.9134 C.ar    1  UNL1        0.0543
     10 C         142.5693  137.5947  158.0962 C.ar    1  UNL1        0.0124
     11 C         142.2505  137.6272  156.6308 C.ar    1  UNL1        0.0382
     12 C         142.3501  136.3734  155.8136 C.1     1  UNL1       -0.0585
     13 C         142.4496  135.1194  154.9964 C.1     1  UNL1       -0.0388
     14 C         142.5492  133.8655  154.1791 C.ar    1  UNL1        0.1451
     15 C         141.8888  133.6217  152.8546 C.ar    1  UNL1        0.1281
     16 N         142.2581  132.2408  152.3999 N.ar    1  UNL1       -0.2228
     17 C         143.1467  131.6312  153.4433 C.ar    1  UNL1        0.1646
     18 C         143.8153  130.2916  153.5342 C.ar    1  UNL1        0.0405
     19 C         144.6637  129.9561  154.7247 C.ar    1  UNL1        0.0256
     20 C         144.8437  130.9603  155.8244 C.ar    1  UNL1        0.1207
     21 N         144.1751  132.2999  155.7335 N.ar    1  UNL1       -0.1616
     22 N         143.3266  132.6354  154.5430 N.ar    1  UNL1       -0.2030
     23 C         142.0800  139.2223  162.8451 C.ar    1  UNL1        0.0514
     24 C         141.7827  137.9922  163.6502 C.ar    1  UNL1        0.0145
     25 C         142.1015  137.9596  165.1156 C.ar    1  UNL1       -0.0008
     26 C         142.7176  139.1573  165.7759 C.ar    1  UNL1        0.0045
     27 C         143.0150  140.3875  164.9708 C.ar    1  UNL1        0.0562
     28 CL        143.6311  141.5852  165.6310 Cl      1  UNL1       -0.0825
     29 C         142.6961  140.4200  163.5054 C.ar    1  UNL1        0.0258
     30 C         143.0364  139.1247  167.2412 C.3     1  UNL1        0.1003
     31 N         142.2501  139.9702  168.1988 N.3     1  UNL1       -0.2633
     32 C         142.8136  140.9965  169.1364 C.3     1  UNL1        0.0987
     33 C         141.6741  141.5984  169.9039 C.2     1  UNL1        0.0177
     34 C         141.3180  142.6047  170.9578 C.2     1  UNL1        0.1165
     35 N         139.8302  142.5723  171.1458 N.2     1  UNL1       -0.1513
     36 N         139.2667  141.5460  170.2082 N.2     1  UNL1       -0.1708
     37 C         140.4063  140.9441  169.4407 C.3     1  UNL1        0.1621
     38 C         140.7623  139.9378  168.3868 C.3     1  UNL1        0.1034
@<TRIPOS>BOND
     1     5     6    1
     2     6     7   ar
     3     7     8   ar
     4     8     9   ar
     5     9     1    1
     6     1     2    2
     7     1     3   am
     8     3    23    1
     9    23    24   ar
    10    24    25   ar
    11    25    26   ar
    12    26    30    1
    13    30    31    1
    14    31    32    1
    15    32    33    1
    16    33    34    2
    17    34    35    1
    18    35    36    2
    19    36    37    1
    20    37    38    1
    21    26    27   ar
    22    27    28    1
    23    27    29   ar
    24     9    10   ar
    25    10    11   ar
    26    11    12    1
    27    12    13    3
    28    13    14    1
    29    14    15   ar
    30    15    16   ar
    31    16    17   ar
    32    17    18   ar
    33    18    19   ar
    34    19    20   ar
    35    20    21   ar
    36    21    22   ar
    37    11     6   ar
    38    22    14   ar
    39    29    23   ar
    40    22    17   ar
    41    38    31    1
    42    37    33    1
    43     3     4    1
@<TRIPOS>MOLECULE
*****
 38 43 0 0 0
SMALL
GASTEIGER

@<TRIPOS>ATOM
      1 C         139.5208  140.0129  159.8545 C.2     1  UNL1        0.2495
      2 O         139.1292  139.0735  160.9565 O.2     1  UNL1       -0.2698
      3 N         140.0167  141.3898  160.1834 N.am    1  UNL1       -0.2804
      4 H         140.2737  142.0063  159.4601 H       1  UNL1        0.1552
      5 C         139.1035  138.2623  154.1307 C.3     1  UNL1        0.0317
      6 C         139.2079  138.6999  155.5617 C.ar    1  UNL1       -0.0142
      7 C         138.4980  139.9391  156.0207 C.ar    1  UNL1       -0.0035
      8 C         138.6023  140.3767  157.4515 C.ar    1  UNL1        0.0042
      9 C         139.4165  139.5753  158.4236 C.ar    1  UNL1        0.0543
     10 C         140.1264  138.3362  157.9646 C.ar    1  UNL1        0.0124
     11 C         140.0220  137.8985  156.5336 C.ar    1  UNL1        0.0382
     12 C         140.7319  136.6594  156.0746 C.1     1  UNL1       -0.0585
     13 C         141.4418  135.4202  155.6157 C.1     1  UNL1       -0.0388
     14 C         142.1517  134.1811  155.1567 C.ar    1  UNL1        0.1451
     15 C         141.9738  133.5032  153.8305 C.ar    1  UNL1        0.1281
     16 N         142.8763  132.3055  153.7975 N.ar    1  UNL1       -0.2228
     17 C         143.6119  132.2433  155.1033 C.ar    1  UNL1        0.1646
     18 C         144.6317  131.2808  155.6358 C.ar    1  UNL1        0.0405
     19 C         145.2037  131.4776  157.0085 C.ar    1  UNL1        0.0256
     20 C         144.7558  132.6368  157.8485 C.ar    1  UNL1        0.1207
     21 N         143.7361  133.5993  157.3159 N.ar    1  UNL1       -0.1616
     22 N         143.1641  133.4025  155.9433 N.ar    1  UNL1       -0.2030
     23 C         140.1210  141.8274  161.6144 C.ar    1  UNL1        0.0514
     24 C         141.4690  142.0120  162.2459 C.ar    1  UNL1        0.0145
     25 C         141.5733  142.4496  163.6768 C.ar    1  UNL1       -0.0008
     26 C         140.3296  142.7027  164.4763 C.ar    1  UNL1        0.0045
     27 C         138.9816  142.5181  163.8449 C.ar    1  UNL1        0.0562
     28 CL        137.7379  142.7712  164.6442 Cl      1  UNL1       -0.0825
     29 C         138.8773  142.0805  162.4139 C.ar    1  UNL1        0.0258
     30 C         140.4340  143.1403  165.9072 C.3     1  UNL1        0.1003
     31 N         141.0529  142.2304  166.9265 N.3     1  UNL1       -0.2633
     32 C         141.0892  142.4615  168.4082 C.3     1  UNL1        0.0987
     33 C         141.8030  141.3037  169.0405 C.2     1  UNL1        0.0177
     34 C         142.2666  140.7309  170.3471 C.2     1  UNL1        0.1165
     35 N         142.9579  139.4302  170.0637 N.2     1  UNL1       -0.1513
     36 N         142.9216  139.1992  168.5821 N.2     1  UNL1       -0.1708
     37 C         142.2078  140.3570  167.9497 C.3     1  UNL1        0.1621
     38 C         141.7443  140.9298  166.6432 C.3     1  UNL1        0.1034
@<TRIPOS>BOND
     1     5     6    1
     2     6     7   ar
     3     7     8   ar
     4     8     9   ar
     5     9     1    1
     6     1     2    2
     7     1     3   am
     8     3    23    1
     9    23    24   ar
    10    24    25   ar
    11    25    26   ar
    12    26    30    1
    13    30    31    1
    14    31    32    1
    15    32    33    1
    16    33    34    2
    17    34    35    1
    18    35    36    2
    19    36    37    1
    20    37    38    1
    21    26    27   ar
    22    27    28    1
    23    27    29   ar
    24     9    10   ar
    25    10    11   ar
    26    11    12    1
    27    12    13    3
    28    13    14    1
    29    14    15   ar
    30    15    16   ar
    31    16    17   ar
    32    17    18   ar
    33    18    19   ar
    34    19    20   ar
    35    20    21   ar
    36    21    22   ar
    37    11     6   ar
    38    22    14   ar
    39    29    23   ar
    40    22    17   ar
    41    38    31    1
    42    37    33    1
    43     3     4    1
