@<TRIPOS>MOLECULE
*****
 28 30 0 0 0
SMALL
GASTEIGER

@<TRIPOS>ATOM
      1 C         141.4500  140.6976  168.0673 C.ar    1  UNL1        0.1363
      2 C         141.1025  141.0882  169.4732 C.ar    1  UNL1        0.0366
      3 C         139.7523  140.7515  170.0332 C.ar    1  UNL1        0.0028
      4 C         138.7496  140.0241  169.1873 C.ar    1  UNL1       -0.0043
      5 C         139.0971  139.6335  167.7814 C.ar    1  UNL1       -0.0197
      6 C         140.4473  139.9703  167.2214 C.ar    1  UNL1        0.0300
      7 C         140.7948  139.5796  165.8154 C.3     1  UNL1        0.1231
      8 N         139.7922  138.8522  164.9695 N.am    1  UNL1       -0.2721
      9 C         140.1397  138.4616  163.5636 C.2     1  UNL1        0.2422
     10 O         141.4899  138.7983  163.0036 O.2     1  UNL1       -0.2733
     11 C         138.4420  138.5155  165.5296 C.3     1  UNL1        0.0987
     12 C         138.0945  138.9061  166.9355 C.3     1  UNL1        0.0477
     13 C         142.1450  139.9163  165.2554 C.ar    1  UNL1       -0.0000
     14 C         143.2809  138.9477  165.4028 C.ar    1  UNL1       -0.0023
     15 C         144.6311  139.2845  164.8427 C.ar    1  UNL1       -0.0003
     16 C         144.8454  140.5898  164.1354 C.ar    1  UNL1       -0.0000
     17 C         143.7095  141.5583  163.9881 C.ar    1  UNL1       -0.0003
     18 C         142.3593  141.2216  164.5481 C.ar    1  UNL1       -0.0023
     19 C         143.4400  142.3514  167.8329 C.3     1  UNL1        0.2525
     20 O         142.8002  141.0344  167.5073 O.3     1  UNL1       -0.4717
     21 C         139.1370  137.7342  162.7177 C.3     1  UNL1        0.1552
     22 N         137.9557  138.4687  162.1566 N.3     1  UNL1       -0.2878
     23 H         137.2517  138.5011  162.8940 H       1  UNL1        0.1238
     24 C         138.1163  139.8712  161.6493 C.3     1  UNL1        0.0985
     25 C         137.8981  141.0325  162.5732 C.3     1  UNL1        0.1263
     26 C         139.0495  141.9162  162.9519 C.3     1  UNL1        0.0332
     27 O         136.5285  141.3102  163.1184 O.3     1  UNL1       -0.3830
     28 H         135.9048  140.6502  162.7773 H       1  UNL1        0.2104
@<TRIPOS>BOND
     1    19    20    1
     2    20     1    1
     3     1     2   ar
     4     2     3   ar
     5     3     4   ar
     6     4     5   ar
     7     5     6   ar
     8     6     7    1
     9     7    13    1
    10    13    14   ar
    11    14    15   ar
    12    15    16   ar
    13    16    17   ar
    14    17    18   ar
    15     7     8    1
    16     8     9   am
    17     9    10    2
    18     9    21    1
    19    21    22    1
    20    22    24    1
    21    24    25    1
    22    25    26    1
    23    25    27    1
    24     8    11    1
    25    11    12    1
    26     6     1   ar
    27    18    13   ar
    28    12     5    1
    29    22    23    1
    30    27    28    1
@<TRIPOS>MOLECULE
*****
 28 30 0 0 0
SMALL
GASTEIGER

@<TRIPOS>ATOM
      1 C         143.3438  142.5693  163.4198 C.ar    1  UNL1        0.1363
      2 C         144.8008  142.5994  163.0646 C.ar    1  UNL1        0.0366
      3 C         145.7124  141.5090  163.5443 C.ar    1  UNL1        0.0028
      4 C         145.1670  140.3885  164.3791 C.ar    1  UNL1       -0.0043
      5 C         143.7100  140.3584  164.7343 C.ar    1  UNL1       -0.0197
      6 C         142.7984  141.4488  164.2546 C.ar    1  UNL1        0.0300
      7 C         141.3413  141.4187  164.6098 C.3     1  UNL1        0.1231
      8 N         140.7959  140.2982  165.4447 N.am    1  UNL1       -0.2721
      9 C         139.3388  140.2681  165.7999 C.2     1  UNL1        0.2422
     10 O         138.4272  141.3584  165.3202 O.2     1  UNL1       -0.2733
     11 C         141.7075  139.2078  165.9243 C.3     1  UNL1        0.0987
     12 C         143.1645  139.2379  165.5692 C.3     1  UNL1        0.0477
     13 C         140.4297  142.5090  164.1301 C.ar    1  UNL1       -0.0000
     14 C         139.7115  142.3645  162.8212 C.ar    1  UNL1       -0.0023
     15 C         138.7999  143.4549  162.3415 C.ar    1  UNL1       -0.0003
     16 C         138.6065  144.6898  163.1708 C.ar    1  UNL1       -0.0000
     17 C         139.3247  144.8343  164.4797 C.ar    1  UNL1       -0.0003
     18 C         140.2363  143.7439  164.9594 C.ar    1  UNL1       -0.0023
     19 C         142.5525  144.1745  161.5364 C.3     1  UNL1        0.2525
     20 O         142.4322  143.6596  162.9401 O.3     1  UNL1       -0.4717
     21 C         138.7934  139.1476  166.6347 C.3     1  UNL1        0.1552
     22 N         138.6561  139.3163  168.1188 N.3     1  UNL1       -0.2878
     23 H         138.8272  138.4014  168.5362 H       1  UNL1        0.1238
     24 C         139.5300  140.2945  168.8466 C.3     1  UNL1        0.0985
     25 C         140.4455  139.8172  169.9347 C.3     1  UNL1        0.1263
     26 C         141.8912  139.5517  169.6357 C.3     1  UNL1        0.0332
     27 O         139.9153  139.6054  171.3218 O.3     1  UNL1       -0.3830
     28 H         138.9698  139.8212  171.3430 H       1  UNL1        0.2104
@<TRIPOS>BOND
     1    19    20    1
     2    20     1    1
     3     1     2   ar
     4     2     3   ar
     5     3     4   ar
     6     4     5   ar
     7     5     6   ar
     8     6     7    1
     9     7    13    1
    10    13    14   ar
    11    14    15   ar
    12    15    16   ar
    13    16    17   ar
    14    17    18   ar
    15     7     8    1
    16     8     9   am
    17     9    10    2
    18     9    21    1
    19    21    22    1
    20    22    24    1
    21    24    25    1
    22    25    26    1
    23    25    27    1
    24     8    11    1
    25    11    12    1
    26     6     1   ar
    27    18    13   ar
    28    12     5    1
    29    22    23    1
    30    27    28    1
@<TRIPOS>MOLECULE
*****
 28 30 0 0 0
SMALL
GASTEIGER

@<TRIPOS>ATOM
      1 C         140.1438  140.6793  166.9206 C.ar    1  UNL1        0.1363
      2 C         140.2071  139.9828  168.2475 C.ar    1  UNL1        0.0366
      3 C         141.4163  140.1415  169.1209 C.ar    1  UNL1        0.0028
      4 C         142.5621  140.9967  168.6673 C.ar    1  UNL1       -0.0043
      5 C         142.4987  141.6932  167.3404 C.ar    1  UNL1       -0.0197
      6 C         141.2896  141.5345  166.4670 C.ar    1  UNL1        0.0300
      7 C         141.2263  142.2310  165.1400 C.3     1  UNL1        0.1231
      8 N         142.3721  143.0861  164.6864 N.am    1  UNL1       -0.2721
      9 C         142.3088  143.7827  163.3594 C.2     1  UNL1        0.2422
     10 O         141.0996  143.6240  162.4860 O.2     1  UNL1       -0.2733
     11 C         143.5812  143.2448  165.5598 C.3     1  UNL1        0.0987
     12 C         143.6446  142.5484  166.8867 C.3     1  UNL1        0.0477
     13 C         140.0171  142.0723  164.2666 C.ar    1  UNL1       -0.0000
     14 C         138.8562  143.0105  164.4152 C.ar    1  UNL1       -0.0023
     15 C         137.6471  142.8518  163.5418 C.ar    1  UNL1       -0.0003
     16 C         137.5989  141.7549  162.5198 C.ar    1  UNL1       -0.0000
     17 C         138.7597  140.8167  162.3712 C.ar    1  UNL1       -0.0003
     18 C         139.9689  140.9754  163.2446 C.ar    1  UNL1       -0.0023
     19 C         138.1626  139.2346  166.0616 C.3     1  UNL1        0.2525
     20 O         138.9346  140.5206  166.0472 O.3     1  UNL1       -0.4717
     21 C         143.4546  144.6378  162.9058 C.3     1  UNL1        0.1552
     22 N         144.5911  144.0254  162.1421 N.3     1  UNL1       -0.2878
     23 H         145.4341  144.1788  162.6955 H       1  UNL1        0.1238
     24 C         144.5610  142.5667  161.7940 C.3     1  UNL1        0.0985
     25 C         145.1508  141.5586  162.7352 C.3     1  UNL1        0.1263
     26 C         144.3682  140.3354  163.1107 C.3     1  UNL1        0.0332
     27 O         146.5233  141.7739  163.3009 O.3     1  UNL1       -0.3830
     28 H         146.8870  142.6057  162.9593 H       1  UNL1        0.2104
@<TRIPOS>BOND
     1    19    20    1
     2    20     1    1
     3     1     2   ar
     4     2     3   ar
     5     3     4   ar
     6     4     5   ar
     7     5     6   ar
     8     6     7    1
     9     7    13    1
    10    13    14   ar
    11    14    15   ar
    12    15    16   ar
    13    16    17   ar
    14    17    18   ar
    15     7     8    1
    16     8     9   am
    17     9    10    2
    18     9    21    1
    19    21    22    1
    20    22    24    1
    21    24    25    1
    22    25    26    1
    23    25    27    1
    24     8    11    1
    25    11    12    1
    26     6     1   ar
    27    18    13   ar
    28    12     5    1
    29    22    23    1
    30    27    28    1
@<TRIPOS>MOLECULE
*****
 28 30 0 0 0
SMALL
GASTEIGER

@<TRIPOS>ATOM
      1 C         139.4866  139.8877  167.4943 C.ar    1  UNL1        0.1363
      2 C         138.3072  138.9791  167.3115 C.ar    1  UNL1        0.0366
      3 C         137.8643  138.5935  165.9312 C.ar    1  UNL1        0.0028
      4 C         138.6009  139.1164  164.7338 C.ar    1  UNL1       -0.0043
      5 C         139.7803  140.0250  164.9166 C.ar    1  UNL1       -0.0197
      6 C         140.2231  140.4106  166.2968 C.ar    1  UNL1        0.0300
      7 C         141.4026  141.3193  166.4796 C.3     1  UNL1        0.1231
      8 N         142.1391  141.8422  165.2821 N.am    1  UNL1       -0.2721
      9 C         143.3186  142.7508  165.4649 C.2     1  UNL1        0.2422
     10 O         143.7615  143.1364  166.8452 O.2     1  UNL1       -0.2733
     11 C         141.6963  141.4566  163.9018 C.3     1  UNL1        0.0987
     12 C         140.5169  140.5480  163.7190 C.3     1  UNL1        0.0477
     13 C         141.8455  141.7049  167.8599 C.ar    1  UNL1       -0.0000
     14 C         141.2438  142.9026  168.5334 C.ar    1  UNL1       -0.0023
     15 C         141.6867  143.2882  169.9136 C.ar    1  UNL1       -0.0003
     16 C         142.7312  142.4761  170.6204 C.ar    1  UNL1       -0.0000
     17 C         143.3328  141.2785  169.9469 C.ar    1  UNL1       -0.0003
     18 C         142.8900  140.8928  168.5667 C.ar    1  UNL1       -0.0023
     19 C         138.9186  140.4202  169.9730 C.3     1  UNL1        0.2525
     20 O         139.9295  140.2733  168.8746 O.3     1  UNL1       -0.4717
     21 C         144.0551  143.2738  164.2674 C.3     1  UNL1        0.1552
     22 N         144.8931  142.3462  163.4383 N.3     1  UNL1       -0.2878
     23 H         145.6590  142.9021  163.0579 H       1  UNL1        0.1238
     24 C         145.5098  141.1306  164.0646 C.3     1  UNL1        0.0985
     25 C         144.8545  139.7908  163.9056 C.3     1  UNL1        0.1263
     26 C         144.3002  139.0800  165.1045 C.3     1  UNL1        0.0332
     27 O         144.7536  139.1617  162.5476 O.3     1  UNL1       -0.3830
     28 H         145.1576  139.7479  161.8889 H       1  UNL1        0.2104
@<TRIPOS>BOND
     1    19    20    1
     2    20     1    1
     3     1     2   ar
     4     2     3   ar
     5     3     4   ar
     6     4     5   ar
     7     5     6   ar
     8     6     7    1
     9     7    13    1
    10    13    14   ar
    11    14    15   ar
    12    15    16   ar
    13    16    17   ar
    14    17    18   ar
    15     7     8    1
    16     8     9   am
    17     9    10    2
    18     9    21    1
    19    21    22    1
    20    22    24    1
    21    24    25    1
    22    25    26    1
    23    25    27    1
    24     8    11    1
    25    11    12    1
    26     6     1   ar
    27    18    13   ar
    28    12     5    1
    29    22    23    1
    30    27    28    1
@<TRIPOS>MOLECULE
*****
 28 30 0 0 0
SMALL
GASTEIGER

@<TRIPOS>ATOM
      1 C         140.0507  140.0542  167.3582 C.ar    1  UNL1        0.1363
      2 C         139.4412  140.2811  168.7098 C.ar    1  UNL1        0.0366
      3 C         140.0502  141.2794  169.6492 C.ar    1  UNL1        0.0028
      4 C         141.2687  142.0508  169.2369 C.ar    1  UNL1       -0.0043
      5 C         141.8783  141.8239  167.8852 C.ar    1  UNL1       -0.0197
      6 C         141.2692  140.8256  166.9459 C.ar    1  UNL1        0.0300
      7 C         141.8788  140.5987  165.5942 C.3     1  UNL1        0.1231
      8 N         143.0973  141.3701  165.1819 N.am    1  UNL1       -0.2721
      9 C         143.7069  141.1432  163.8302 C.2     1  UNL1        0.2422
     10 O         143.0979  140.1448  162.8909 O.2     1  UNL1       -0.2733
     11 C         143.7064  142.3684  166.1213 C.3     1  UNL1        0.0987
     12 C         143.0969  142.5953  167.4729 C.3     1  UNL1        0.0477
     13 C         141.2698  139.6003  164.6548 C.ar    1  UNL1       -0.0000
     14 C         140.2105  140.0325  163.6846 C.ar    1  UNL1       -0.0023
     15 C         139.6014  139.0342  162.7453 C.ar    1  UNL1       -0.0003
     16 C         140.0517  137.6036  162.7761 C.ar    1  UNL1       -0.0000
     17 C         141.1109  137.1715  163.7463 C.ar    1  UNL1       -0.0003
     18 C         141.7199  138.1698  164.6857 C.ar    1  UNL1       -0.0023
     19 C         137.9866  138.7095  166.5326 C.3     1  UNL1        0.2525
     20 O         139.4416  139.0558  166.4188 O.3     1  UNL1       -0.4717
     21 C         144.9255  141.9146  163.4179 C.3     1  UNL1        0.1552
     22 N         144.7919  143.0928  162.4994 N.3     1  UNL1       -0.2878
     23 H         144.2642  142.7743  161.6867 H       1  UNL1        0.1238
     24 C         144.1281  144.3485  162.9818 C.3     1  UNL1        0.0985
     25 C         142.6787  144.5930  162.6831 C.3     1  UNL1        0.1263
     26 C         141.6490  144.4018  163.7569 C.3     1  UNL1        0.0332
     27 O         142.2589  145.0288  161.3105 O.3     1  UNL1       -0.3830
     28 H         143.0411  145.1039  160.7418 H       1  UNL1        0.2104
@<TRIPOS>BOND
     1    19    20    1
     2    20     1    1
     3     1     2   ar
     4     2     3   ar
     5     3     4   ar
     6     4     5   ar
     7     5     6   ar
     8     6     7    1
     9     7    13    1
    10    13    14   ar
    11    14    15   ar
    12    15    16   ar
    13    16    17   ar
    14    17    18   ar
    15     7     8    1
    16     8     9   am
    17     9    10    2
    18     9    21    1
    19    21    22    1
    20    22    24    1
    21    24    25    1
    22    25    26    1
    23    25    27    1
    24     8    11    1
    25    11    12    1
    26     6     1   ar
    27    18    13   ar
    28    12     5    1
    29    22    23    1
    30    27    28    1
@<TRIPOS>MOLECULE
*****
 28 30 0 0 0
SMALL
GASTEIGER

@<TRIPOS>ATOM
      1 C         143.4582  142.6287  164.1752 C.ar    1  UNL1        0.1363
      2 C         144.9478  142.8043  164.1771 C.ar    1  UNL1        0.0366
      3 C         145.8438  141.6124  164.0139 C.ar    1  UNL1        0.0028
      4 C         145.2501  140.2449  163.8487 C.ar    1  UNL1       -0.0043
      5 C         143.7604  140.0693  163.8468 C.ar    1  UNL1       -0.0197
      6 C         142.8645  141.2612  164.0100 C.ar    1  UNL1        0.0300
      7 C         141.3747  141.0855  164.0081 C.3     1  UNL1        0.1231
      8 N         140.7810  139.7180  163.8429 N.am    1  UNL1       -0.2721
      9 C         139.2913  139.5423  163.8410 C.2     1  UNL1        0.2422
     10 O         138.3954  140.7342  164.0042 O.2     1  UNL1       -0.2733
     11 C         141.6770  138.5261  163.6796 C.3     1  UNL1        0.0987
     12 C         143.1666  138.7017  163.6816 C.3     1  UNL1        0.0477
     13 C         140.4788  142.2774  164.1713 C.ar    1  UNL1       -0.0000
     14 C         139.9735  143.0071  162.9620 C.ar    1  UNL1       -0.0023
     15 C         139.0776  144.1990  163.1253 C.ar    1  UNL1       -0.0003
     16 C         138.6869  144.6612  164.4978 C.ar    1  UNL1       -0.0000
     17 C         139.1922  143.9316  165.7070 C.ar    1  UNL1       -0.0003
     18 C         140.0882  142.7396  165.5438 C.ar    1  UNL1       -0.0023
     19 C         142.9664  145.1467  163.7658 C.3     1  UNL1        0.2525
     20 O         142.5622  143.8206  164.3384 O.3     1  UNL1       -0.4717
     21 C         138.6976  138.1748  163.6758 C.3     1  UNL1        0.1552
     22 N         138.2933  137.6921  162.3143 N.3     1  UNL1       -0.2878
     23 H         137.2737  137.7002  162.2899 H       1  UNL1        0.1238
     24 C         138.7616  138.4219  161.0902 C.3     1  UNL1        0.0985
     25 C         137.9819  139.5934  160.5713 C.3     1  UNL1        0.1263
     26 C         138.2736  140.1433  159.2066 C.3     1  UNL1        0.0332
     27 O         136.9103  140.2151  161.4170 O.3     1  UNL1       -0.3830
     28 H         136.8511  139.7432  162.2624 H       1  UNL1        0.2104
@<TRIPOS>BOND
     1    19    20    1
     2    20     1    1
     3     1     2   ar
     4     2     3   ar
     5     3     4   ar
     6     4     5   ar
     7     5     6   ar
     8     6     7    1
     9     7    13    1
    10    13    14   ar
    11    14    15   ar
    12    15    16   ar
    13    16    17   ar
    14    17    18   ar
    15     7     8    1
    16     8     9   am
    17     9    10    2
    18     9    21    1
    19    21    22    1
    20    22    24    1
    21    24    25    1
    22    25    26    1
    23    25    27    1
    24     8    11    1
    25    11    12    1
    26     6     1   ar
    27    18    13   ar
    28    12     5    1
    29    22    23    1
    30    27    28    1
@<TRIPOS>MOLECULE
*****
 28 30 0 0 0
SMALL
GASTEIGER

@<TRIPOS>ATOM
      1 C         143.0910  139.6324  164.8622 C.ar    1  UNL1        0.1363
      2 C         144.5852  139.5823  164.9838 C.ar    1  UNL1        0.0366
      3 C         145.4420  140.3534  164.0240 C.ar    1  UNL1        0.0028
      4 C         144.8047  141.1746  162.9426 C.ar    1  UNL1       -0.0043
      5 C         143.3105  141.2247  162.8211 C.ar    1  UNL1       -0.0197
      6 C         142.4536  140.4536  163.7808 C.ar    1  UNL1        0.0300
      7 C         140.9594  140.5037  163.6592 C.3     1  UNL1        0.1231
      8 N         140.3220  141.3249  162.5778 N.am    1  UNL1       -0.2721
      9 C         138.8278  141.3750  162.4562 C.2     1  UNL1        0.2422
     10 O         137.9709  140.6039  163.4160 O.2     1  UNL1       -0.2733
     11 C         141.1789  142.0960  161.6181 C.3     1  UNL1        0.0987
     12 C         142.6731  142.0459  161.7396 C.3     1  UNL1        0.0477
     13 C         140.1025  139.7326  164.6190 C.ar    1  UNL1       -0.0000
     14 C         139.7116  138.3185  164.3061 C.ar    1  UNL1       -0.0023
     15 C         138.8548  137.5474  165.2659 C.ar    1  UNL1       -0.0003
     16 C         138.3888  138.1904  166.5386 C.ar    1  UNL1       -0.0000
     17 C         138.7797  139.6043  166.8514 C.ar    1  UNL1       -0.0003
     18 C         139.6365  140.3754  165.8916 C.ar    1  UNL1       -0.0023
     19 C         142.5402  138.8896  167.2901 C.3     1  UNL1        0.2525
     20 O         142.2341  138.8613  165.8220 O.3     1  UNL1       -0.4717
     21 C         138.1904  142.1962  161.3748 C.3     1  UNL1        0.1552
     22 N         137.4630  143.4607  161.7236 N.3     1  UNL1       -0.2878
     23 H         136.4943  143.2013  161.9101 H       1  UNL1        0.1238
     24 C         137.9197  144.2928  162.8852 C.3     1  UNL1        0.0985
     25 C         139.1690  145.1154  162.7733 C.3     1  UNL1        0.1263
     26 C         140.2933  144.9074  163.7441 C.3     1  UNL1        0.0332
     27 O         139.2939  146.1459  161.6905 O.3     1  UNL1       -0.3830
     28 H         138.4853  146.1517  161.1548 H       1  UNL1        0.2104
@<TRIPOS>BOND
     1    19    20    1
     2    20     1    1
     3     1     2   ar
     4     2     3   ar
     5     3     4   ar
     6     4     5   ar
     7     5     6   ar
     8     6     7    1
     9     7    13    1
    10    13    14   ar
    11    14    15   ar
    12    15    16   ar
    13    16    17   ar
    14    17    18   ar
    15     7     8    1
    16     8     9   am
    17     9    10    2
    18     9    21    1
    19    21    22    1
    20    22    24    1
    21    24    25    1
    22    25    26    1
    23    25    27    1
    24     8    11    1
    25    11    12    1
    26     6     1   ar
    27    18    13   ar
    28    12     5    1
    29    22    23    1
    30    27    28    1
@<TRIPOS>MOLECULE
*****
 28 30 0 0 0
SMALL
GASTEIGER

@<TRIPOS>ATOM
      1 C         139.3341  139.9020  167.4743 C.ar    1  UNL1        0.1363
      2 C         138.9757  139.8743  168.9306 C.ar    1  UNL1        0.0366
      3 C         139.7610  140.6929  169.9120 C.ar    1  UNL1        0.0028
      4 C         140.9048  141.5392  169.4371 C.ar    1  UNL1       -0.0043
      5 C         141.2632  141.5669  167.9809 C.ar    1  UNL1       -0.0197
      6 C         140.4779  140.7483  166.9995 C.ar    1  UNL1        0.0300
      7 C         140.8364  140.7760  165.5431 C.3     1  UNL1        0.1231
      8 N         141.9801  141.6223  165.0683 N.am    1  UNL1       -0.2721
      9 C         142.3386  141.6501  163.6120 C.2     1  UNL1        0.2422
     10 O         141.5532  140.8315  162.6306 O.2     1  UNL1       -0.2733
     11 C         142.7655  142.4409  166.0497 C.3     1  UNL1        0.0987
     12 C         142.4071  142.4132  167.5059 C.3     1  UNL1        0.0477
     13 C         140.0510  139.9575  164.5617 C.ar    1  UNL1       -0.0000
     14 C         138.8912  140.5692  163.8333 C.ar    1  UNL1       -0.0023
     15 C         138.1058  139.7507  162.8519 C.ar    1  UNL1       -0.0003
     16 C         138.4803  138.3203  162.5989 C.ar    1  UNL1       -0.0000
     17 C         139.6401  137.7086  163.3274 C.ar    1  UNL1       -0.0003
     18 C         140.4254  138.5272  164.3088 C.ar    1  UNL1       -0.0023
     19 C         137.5162  138.1121  166.9830 C.3     1  UNL1        0.2525
     20 O         138.5488  139.0834  166.4929 O.3     1  UNL1       -0.4717
     21 C         143.4824  142.4964  163.1371 C.3     1  UNL1        0.1552
     22 N         144.8318  141.8791  162.9184 N.3     1  UNL1       -0.2878
     23 H         145.5087  142.6421  162.9223 H       1  UNL1        0.1238
     24 C         145.3448  140.8403  163.8712 C.3     1  UNL1        0.0985
     25 C         144.7136  139.4801  163.9088 C.3     1  UNL1        0.1263
     26 C         144.2312  138.9129  165.2109 C.3     1  UNL1        0.0332
     27 O         144.5649  138.6871  162.6443 O.3     1  UNL1       -0.3830
     28 H         144.9248  139.1946  161.9001 H       1  UNL1        0.2104
@<TRIPOS>BOND
     1    19    20    1
     2    20     1    1
     3     1     2   ar
     4     2     3   ar
     5     3     4   ar
     6     4     5   ar
     7     5     6   ar
     8     6     7    1
     9     7    13    1
    10    13    14   ar
    11    14    15   ar
    12    15    16   ar
    13    16    17   ar
    14    17    18   ar
    15     7     8    1
    16     8     9   am
    17     9    10    2
    18     9    21    1
    19    21    22    1
    20    22    24    1
    21    24    25    1
    22    25    26    1
    23    25    27    1
    24     8    11    1
    25    11    12    1
    26     6     1   ar
    27    18    13   ar
    28    12     5    1
    29    22    23    1
    30    27    28    1
@<TRIPOS>MOLECULE
*****
 28 30 0 0 0
SMALL
GASTEIGER

@<TRIPOS>ATOM
      1 C         142.1775  143.1213  162.1368 C.ar    1  UNL1        0.1363
      2 C         143.0864  143.3578  160.9673 C.ar    1  UNL1        0.0366
      3 C         144.4112  142.6583  160.8934 C.ar    1  UNL1        0.0028
      4 C         144.8272  141.7221  161.9891 C.ar    1  UNL1       -0.0043
      5 C         143.9183  141.4856  163.1587 C.ar    1  UNL1       -0.0197
      6 C         142.5935  142.1851  163.2325 C.ar    1  UNL1        0.0300
      7 C         141.6846  141.9485  164.4022 C.3     1  UNL1        0.1231
      8 N         142.1005  141.0124  165.4979 N.am    1  UNL1       -0.2721
      9 C         141.1916  140.7758  166.6675 C.2     1  UNL1        0.2422
     10 O         139.8668  141.4753  166.7414 O.2     1  UNL1       -0.2733
     11 C         143.4253  140.3128  165.4240 C.3     1  UNL1        0.0987
     12 C         144.3342  140.5494  164.2545 C.3     1  UNL1        0.0477
     13 C         140.3597  142.6481  164.4760 C.ar    1  UNL1       -0.0000
     14 C         140.2581  143.9948  165.1290 C.ar    1  UNL1       -0.0023
     15 C         138.9332  144.6943  165.2028 C.ar    1  UNL1       -0.0003
     16 C         137.7101  144.0472  164.6238 C.ar    1  UNL1       -0.0000
     17 C         137.8118  142.7006  163.9709 C.ar    1  UNL1       -0.0003
     18 C         139.1366  142.0010  163.8970 C.ar    1  UNL1       -0.0023
     19 C         140.5001  144.8683  161.1966 C.3     1  UNL1        0.2525
     20 O         140.8527  143.8208  162.2107 O.3     1  UNL1       -0.4717
     21 C         141.6076  139.8397  167.7632 C.3     1  UNL1        0.1552
     22 N         142.4531  140.3402  168.8965 N.3     1  UNL1       -0.2878
     23 H         142.9020  141.1970  168.5729 H       1  UNL1        0.1238
     24 C         141.8225  140.6552  170.2206 C.3     1  UNL1        0.0985
     25 C         141.7484  142.0756  170.6971 C.3     1  UNL1        0.1263
     26 C         141.2769  143.1546  169.7679 C.3     1  UNL1        0.0332
     27 O         142.1457  142.4169  172.1026 O.3     1  UNL1       -0.3830
     28 H         142.4234  141.6106  172.5650 H       1  UNL1        0.2104
@<TRIPOS>BOND
     1    19    20    1
     2    20     1    1
     3     1     2   ar
     4     2     3   ar
     5     3     4   ar
     6     4     5   ar
     7     5     6   ar
     8     6     7    1
     9     7    13    1
    10    13    14   ar
    11    14    15   ar
    12    15    16   ar
    13    16    17   ar
    14    17    18   ar
    15     7     8    1
    16     8     9   am
    17     9    10    2
    18     9    21    1
    19    21    22    1
    20    22    24    1
    21    24    25    1
    22    25    26    1
    23    25    27    1
    24     8    11    1
    25    11    12    1
    26     6     1   ar
    27    18    13   ar
    28    12     5    1
    29    22    23    1
    30    27    28    1
