@<TRIPOS>MOLECULE
*****
 45 51 0 0 0
SMALL
GASTEIGER

@<TRIPOS>ATOM
      1 C         140.7167  141.4697  164.6716 C.ar    1  UNL1        0.0907
      2 C         141.4382  142.5194  165.4638 C.ar    1  UNL1        0.1496
      3 O         141.8989  143.5834  164.5121 O.2     1  UNL1       -0.4533
      4 C         141.4621  143.1913  163.1317 C.ar    1  UNL1        0.1467
      5 C         141.6353  143.8549  161.7977 C.ar    1  UNL1        0.0536
      6 C         141.0779  143.2122  160.5623 C.ar    1  UNL1        0.0730
      7 C         140.3472  141.9059  160.6609 C.ar    1  UNL1        0.0327
      8 C         140.1740  141.2423  161.9949 C.ar    1  UNL1        0.0061
      9 C         140.7315  141.8849  163.2303 C.ar    1  UNL1        0.0420
     10 C         139.7898  141.2633  159.4254 C.ar    1  UNL1        0.0827
     11 C         138.5634  141.8298  158.7735 C.ar    1  UNL1        0.0207
     12 C         138.0060  141.1872  157.5381 C.ar    1  UNL1        0.0223
     13 C         138.6748  139.9780  156.9547 C.ar    1  UNL1        0.1021
     14 N         138.1174  139.3353  155.7192 N.ar    1  UNL1       -0.2235
     15 C         138.7862  138.1261  155.1358 C.ar    1  UNL1        0.1828
     16 N         140.0126  137.5595  155.7878 N.ar    1  UNL1       -0.2877
     17 C         140.8809  136.3859  155.4437 C.ar    1  UNL1        0.0676
     18 C         140.8167  135.3818  154.3312 C.ar    1  UNL1        0.0177
     19 C         141.8466  134.2949  154.2414 C.ar    1  UNL1        0.0038
     20 C         142.9408  134.2122  155.2641 C.ar    1  UNL1        0.0297
     21 C         143.0050  135.2163  156.3766 C.ar    1  UNL1        0.1415
     22 F         144.0992  135.1336  157.3994 F       1  UNL1       -0.2041
     23 C         141.9751  136.3032  156.4664 C.ar    1  UNL1        0.0451
     24 C         141.7829  137.4257  157.4426 C.ar    1  UNL1        0.0228
     25 C         140.5700  138.2022  157.0232 C.ar    1  UNL1        0.0846
     26 C         139.9012  139.4114  157.6067 C.ar    1  UNL1        0.1149
     27 N         140.4586  140.0541  158.8420 N.ar    1  UNL1       -0.2423
     28 C         141.6600  142.5073  166.9473 C.ar    1  UNL1        0.0349
     29 C         143.0019  142.1307  167.5019 C.ar    1  UNL1        0.0053
     30 C         143.2237  142.1185  168.9853 C.ar    1  UNL1        0.0297
     31 C         142.1037  142.4829  169.9142 C.ar    1  UNL1        0.1401
     32 F         142.3256  142.4707  171.3977 F       1  UNL1       -0.2042
     33 C         140.7619  142.8595  169.3596 C.ar    1  UNL1        0.0297
     34 C         140.5400  142.8717  167.8762 C.ar    1  UNL1        0.0053
     35 C         138.0996  139.0354  166.3964 C.3     1  UNL1        0.1109
     36 N         138.7260  140.2815  165.8443 N.am    1  UNL1       -0.2991
     37 C         140.0904  140.2236  165.2237 C.2     1  UNL1        0.2490
     38 O         140.8283  138.9195  165.1554 O.2     1  UNL1       -0.2700
     39 H         138.2415  141.1374  165.8892 H       1  UNL1        0.1498
     40 N         141.2510  143.8759  159.2283 N.pl3   1  UNL1       -0.1924
     41 C         140.3448  145.0019  158.8275 C.3     1  UNL1        0.1388
     42 S         142.3306  143.4135  158.2951 S.O2    1  UNL1        0.0588
     43 C         143.4101  142.9510  157.3619 C.3     1  UNL1        0.1999
     44 O         141.3114  143.2211  157.2114 O.2     1  UNL1       -0.1542
     45 O         143.3497  143.6058  159.3787 O.2     1  UNL1       -0.1542
@<TRIPOS>BOND
     1    35    36    1
     2    36    37   am
     3    37    38    2
     4    37     1    1
     5     1     2   ar
     6     2    28    1
     7    28    29   ar
     8    29    30   ar
     9    30    31   ar
    10    31    32    1
    11    31    33   ar
    12    33    34   ar
    13     2     3   ar
    14     3     4   ar
    15     4     5   ar
    16     5     6   ar
    17     6    40    1
    18    40    41    1
    19    40    42    1
    20    42    43    1
    21    42    44    2
    22    42    45    2
    23     6     7   ar
    24     7    10    1
    25    10    11   ar
    26    11    12   ar
    27    12    13   ar
    28    13    14   ar
    29    14    15   ar
    30    15    16   ar
    31    16    17   ar
    32    17    18   ar
    33    18    19   ar
    34    19    20   ar
    35    20    21   ar
    36    21    22    1
    37    21    23   ar
    38    23    24   ar
    39    24    25   ar
    40    25    26   ar
    41    26    27   ar
    42     7     8   ar
    43     8     9   ar
    44     9     1   ar
    45    34    28   ar
    46     9     4   ar
    47    27    10   ar
    48    26    13   ar
    49    25    16   ar
    50    23    17   ar
    51    36    39    1
@<TRIPOS>MOLECULE
*****
 45 51 0 0 0
SMALL
GASTEIGER

@<TRIPOS>ATOM
      1 C         141.8723  139.5151  163.9832 C.ar    1  UNL1        0.0907
      2 C         142.5923  140.5546  164.7901 C.ar    1  UNL1        0.1496
      3 O         143.3421  141.4412  163.8405 O.2     1  UNL1       -0.4533
      4 C         143.0856  140.9496  162.4468 C.ar    1  UNL1        0.1467
      5 C         143.5618  141.4321  161.1087 C.ar    1  UNL1        0.0536
      6 C         143.1295  140.7242  159.8588 C.ar    1  UNL1        0.0730
      7 C         142.2211  139.5338  159.9471 C.ar    1  UNL1        0.0327
      8 C         141.7449  139.0513  161.2852 C.ar    1  UNL1        0.0061
      9 C         142.1771  139.7592  162.5350 C.ar    1  UNL1        0.0420
     10 C         141.7889  138.8259  158.6972 C.ar    1  UNL1        0.0827
     11 C         140.7473  139.4400  157.8095 C.ar    1  UNL1        0.0207
     12 C         140.3151  138.7322  156.5597 C.ar    1  UNL1        0.0223
     13 C         140.9244  137.4102  156.1976 C.ar    1  UNL1        0.1021
     14 N         140.4921  136.7023  154.9477 N.ar    1  UNL1       -0.2235
     15 C         141.1014  135.3803  154.5857 C.ar    1  UNL1        0.1828
     16 N         142.1429  134.7662  155.4734 N.ar    1  UNL1       -0.2877
     17 C         142.9158  133.4844  155.3758 C.ar    1  UNL1        0.0676
     18 C         142.9086  132.3830  154.3575 C.ar    1  UNL1        0.0177
     19 C         143.8112  131.1974  154.5286 C.ar    1  UNL1        0.0038
     20 C         144.7211  131.1130  155.7181 C.ar    1  UNL1        0.0297
     21 C         144.7284  132.2143  156.7365 C.ar    1  UNL1        0.1415
     22 F         145.6383  132.1300  157.9260 F       1  UNL1       -0.2041
     23 C         143.8257  133.4000  156.5653 C.ar    1  UNL1        0.0451
     24 C         143.6152  134.6298  157.3981 C.ar    1  UNL1        0.0228
     25 C         142.5752  135.4741  156.7232 C.ar    1  UNL1        0.0846
     26 C         141.9659  136.7961  157.0853 C.ar    1  UNL1        0.1149
     27 N         142.3981  137.5040  158.3352 N.ar    1  UNL1       -0.2423
     28 C         142.5669  140.6847  166.2843 C.ar    1  UNL1        0.0349
     29 C         142.6255  139.4577  167.1451 C.ar    1  UNL1        0.0053
     30 C         142.6001  139.5877  168.6392 C.ar    1  UNL1        0.0297
     31 C         142.5160  140.9448  169.2725 C.ar    1  UNL1        0.1401
     32 F         142.4906  141.0749  170.7667 F       1  UNL1       -0.2042
     33 C         142.4574  142.1719  168.4117 C.ar    1  UNL1        0.0297
     34 C         142.4828  142.0418  166.9176 C.ar    1  UNL1        0.0053
     35 C         138.7118  137.6285  165.4672 C.3     1  UNL1        0.1109
     36 N         139.5836  138.7204  164.9216 N.am    1  UNL1       -0.2991
     37 C         141.0005  138.4232  164.5289 C.2     1  UNL1        0.2490
     38 O         141.5454  137.0341  164.6817 O.2     1  UNL1       -0.2700
     39 H         139.2259  139.6321  164.8213 H       1  UNL1        0.1498
     40 N         143.6057  141.2067  158.5208 N.pl3   1  UNL1       -0.1924
     41 C         144.3977  140.2935  157.6326 C.3     1  UNL1        0.1388
     42 S         143.2899  142.6024  158.0709 S.O2    1  UNL1        0.0588
     43 C         142.9741  143.9981  157.6211 C.3     1  UNL1        0.1999
     44 O         144.7496  142.8578  157.8386 O.2     1  UNL1       -0.1542
     45 O         141.8302  142.3470  158.3033 O.2     1  UNL1       -0.1542
@<TRIPOS>BOND
     1    35    36    1
     2    36    37   am
     3    37    38    2
     4    37     1    1
     5     1     2   ar
     6     2    28    1
     7    28    29   ar
     8    29    30   ar
     9    30    31   ar
    10    31    32    1
    11    31    33   ar
    12    33    34   ar
    13     2     3   ar
    14     3     4   ar
    15     4     5   ar
    16     5     6   ar
    17     6    40    1
    18    40    41    1
    19    40    42    1
    20    42    43    1
    21    42    44    2
    22    42    45    2
    23     6     7   ar
    24     7    10    1
    25    10    11   ar
    26    11    12   ar
    27    12    13   ar
    28    13    14   ar
    29    14    15   ar
    30    15    16   ar
    31    16    17   ar
    32    17    18   ar
    33    18    19   ar
    34    19    20   ar
    35    20    21   ar
    36    21    22    1
    37    21    23   ar
    38    23    24   ar
    39    24    25   ar
    40    25    26   ar
    41    26    27   ar
    42     7     8   ar
    43     8     9   ar
    44     9     1   ar
    45    34    28   ar
    46     9     4   ar
    47    27    10   ar
    48    26    13   ar
    49    25    16   ar
    50    23    17   ar
    51    36    39    1
@<TRIPOS>MOLECULE
*****
 45 51 0 0 0
SMALL
GASTEIGER

@<TRIPOS>ATOM
      1 C         141.4710  140.1340  162.7537 C.ar    1  UNL1        0.0907
      2 C         142.0308  141.3770  163.3796 C.ar    1  UNL1        0.1496
      3 O         142.6385  142.2109  162.2909 O.2     1  UNL1       -0.4533
      4 C         142.4544  141.4833  160.9922 C.ar    1  UNL1        0.1467
      5 C         142.8505  141.8238  159.5861 C.ar    1  UNL1        0.0536
      6 C         142.5251  140.8806  158.4660 C.ar    1  UNL1        0.0730
      7 C         141.8036  139.5970  158.7520 C.ar    1  UNL1        0.0327
      8 C         141.4074  139.2566  160.1582 C.ar    1  UNL1        0.0061
      9 C         141.7328  140.1997  161.2782 C.ar    1  UNL1        0.0420
     10 C         141.4781  138.6538  157.6319 C.ar    1  UNL1        0.0827
     11 C         140.4307  139.0208  156.6229 C.ar    1  UNL1        0.0207
     12 C         140.1052  138.0777  155.5028 C.ar    1  UNL1        0.0223
     13 C         140.8273  136.7676  155.3918 C.ar    1  UNL1        0.1021
     14 N         140.5018  135.8244  154.2717 N.ar    1  UNL1       -0.2235
     15 C         141.2238  134.5143  154.1607 C.ar    1  UNL1        0.1828
     16 N         142.2713  134.1473  155.1698 N.ar    1  UNL1       -0.2877
     17 C         143.1423  132.9350  155.3168 C.ar    1  UNL1        0.0676
     18 C         143.2605  131.6796  154.5044 C.ar    1  UNL1        0.0177
     19 C         144.2425  130.6181  154.9030 C.ar    1  UNL1        0.0038
     20 C         145.1062  130.8120  156.1139 C.ar    1  UNL1        0.0297
     21 C         144.9880  132.0674  156.9262 C.ar    1  UNL1        0.1415
     22 F         145.8518  132.2613  158.1372 F       1  UNL1       -0.2041
     23 C         144.0060  133.1289  156.5277 C.ar    1  UNL1        0.0451
     24 C         143.6688  134.4611  157.1291 C.ar    1  UNL1        0.0228
     25 C         142.5967  135.0905  156.2899 C.ar    1  UNL1        0.0846
     26 C         141.8747  136.4006  156.4009 C.ar    1  UNL1        0.1149
     27 N         142.2001  137.3437  157.5209 N.ar    1  UNL1       -0.2423
     28 C         141.9899  141.7250  164.8382 C.ar    1  UNL1        0.0349
     29 C         140.7070  142.1867  165.4634 C.ar    1  UNL1        0.0053
     30 C         140.6661  142.5347  166.9219 C.ar    1  UNL1        0.0297
     31 C         141.9081  142.4209  167.7551 C.ar    1  UNL1        0.1401
     32 F         141.8673  142.7689  169.2137 F       1  UNL1       -0.2042
     33 C         143.1910  141.9592  167.1299 C.ar    1  UNL1        0.0297
     34 C         143.2319  141.6112  165.6714 C.ar    1  UNL1        0.0053
     35 C         138.6674  138.0962  164.6869 C.3     1  UNL1        0.1109
     36 N         139.3663  139.2094  163.9641 N.am    1  UNL1       -0.2991
     37 C         140.7722  139.0208  163.4765 C.2     1  UNL1        0.2490
     38 O         141.4792  137.7190  163.7116 O.2     1  UNL1       -0.2700
     39 H         138.9022  140.0638  163.8098 H       1  UNL1        0.1498
     40 N         142.9212  141.2210  157.0599 N.pl3   1  UNL1       -0.1924
     41 C         142.2362  142.3438  156.3386 C.3     1  UNL1        0.1388
     42 S         144.0024  140.4386  156.3749 S.O2    1  UNL1        0.0588
     43 C         145.0834  139.6562  155.6900 C.3     1  UNL1        0.1999
     44 O         144.8022  140.4329  157.6439 O.2     1  UNL1       -0.1542
     45 O         143.2025  140.4443  155.1060 O.2     1  UNL1       -0.1542
@<TRIPOS>BOND
     1    35    36    1
     2    36    37   am
     3    37    38    2
     4    37     1    1
     5     1     2   ar
     6     2    28    1
     7    28    29   ar
     8    29    30   ar
     9    30    31   ar
    10    31    32    1
    11    31    33   ar
    12    33    34   ar
    13     2     3   ar
    14     3     4   ar
    15     4     5   ar
    16     5     6   ar
    17     6    40    1
    18    40    41    1
    19    40    42    1
    20    42    43    1
    21    42    44    2
    22    42    45    2
    23     6     7   ar
    24     7    10    1
    25    10    11   ar
    26    11    12   ar
    27    12    13   ar
    28    13    14   ar
    29    14    15   ar
    30    15    16   ar
    31    16    17   ar
    32    17    18   ar
    33    18    19   ar
    34    19    20   ar
    35    20    21   ar
    36    21    22    1
    37    21    23   ar
    38    23    24   ar
    39    24    25   ar
    40    25    26   ar
    41    26    27   ar
    42     7     8   ar
    43     8     9   ar
    44     9     1   ar
    45    34    28   ar
    46     9     4   ar
    47    27    10   ar
    48    26    13   ar
    49    25    16   ar
    50    23    17   ar
    51    36    39    1
@<TRIPOS>MOLECULE
*****
 45 51 0 0 0
SMALL
GASTEIGER

@<TRIPOS>ATOM
      1 C         143.3304  141.2020  158.1984 C.ar    1  UNL1        0.0907
      2 C         143.9369  142.3531  157.4519 C.ar    1  UNL1        0.1496
      3 O         143.5725  143.6168  158.1731 O.2     1  UNL1       -0.4533
      4 C         142.7408  143.2468  159.3653 C.ar    1  UNL1        0.1467
      5 C         142.1004  144.0760  160.4388 C.ar    1  UNL1        0.0536
      6 C         141.3104  143.4127  161.5279 C.ar    1  UNL1        0.0730
      7 C         141.1608  141.9203  161.5434 C.ar    1  UNL1        0.0327
      8 C         141.8012  141.0911  160.4700 C.ar    1  UNL1        0.0061
      9 C         142.5912  141.7543  159.3809 C.ar    1  UNL1        0.0420
     10 C         140.3708  141.2570  162.6325 C.ar    1  UNL1        0.0827
     11 C         139.1449  140.4623  162.2922 C.ar    1  UNL1        0.0207
     12 C         138.3549  139.7991  163.3812 C.ar    1  UNL1        0.0223
     13 C         138.7908  139.9305  164.8104 C.ar    1  UNL1        0.1021
     14 N         138.0008  139.2672  165.8995 N.ar    1  UNL1       -0.2235
     15 C         138.4366  139.3985  167.3287 C.ar    1  UNL1        0.1828
     16 N         139.6625  140.1932  167.6690 N.ar    1  UNL1       -0.2877
     17 C         140.3308  140.4967  168.9771 C.ar    1  UNL1        0.0676
     18 C         139.9993  140.1082  170.3875 C.ar    1  UNL1        0.0177
     19 C         140.8709  140.5705  171.5174 C.ar    1  UNL1        0.0038
     20 C         142.0739  141.4214  171.2368 C.ar    1  UNL1        0.0297
     21 C         142.4054  141.8099  169.8264 C.ar    1  UNL1        0.1415
     22 F         143.6086  142.6608  169.5459 F       1  UNL1       -0.2041
     23 C         141.5339  141.3475  168.6966 C.ar    1  UNL1        0.0451
     24 C         141.6091  141.5699  167.2150 C.ar    1  UNL1        0.0228
     25 C         140.4525  140.8564  166.5800 C.ar    1  UNL1        0.0846
     26 C         140.0167  140.7251  165.1507 C.ar    1  UNL1        0.1149
     27 N         140.8067  141.3884  164.0617 N.ar    1  UNL1       -0.2423
     28 C         144.7628  142.2572  156.2033 C.ar    1  UNL1        0.0349
     29 C         144.1333  142.5138  154.8662 C.ar    1  UNL1        0.0053
     30 C         144.9590  142.4179  153.6177 C.ar    1  UNL1        0.0297
     31 C         146.4143  142.0656  153.7063 C.ar    1  UNL1        0.1401
     32 F         147.2402  141.9697  152.4577 F       1  UNL1       -0.2042
     33 C         147.0438  141.8090  155.0434 C.ar    1  UNL1        0.0297
     34 C         146.2181  141.9049  156.2919 C.ar    1  UNL1        0.0053
     35 C         143.3497  137.8757  156.0338 C.3     1  UNL1        0.1109
     36 N         143.2368  139.3247  156.4047 N.am    1  UNL1       -0.2991
     37 C         143.4434  139.7530  157.8274 C.2     1  UNL1        0.2490
     38 O         143.7629  138.7322  158.8790 O.2     1  UNL1       -0.2700
     39 H         143.0271  139.9947  155.7145 H       1  UNL1        0.1498
     40 N         140.6700  144.2419  162.6013 N.pl3   1  UNL1       -0.1924
     41 C         141.5222  145.0591  163.5264 C.3     1  UNL1        0.1388
     42 S         139.1773  144.2538  162.7496 S.O2    1  UNL1        0.0588
     43 C         137.6848  144.2658  162.8979 C.3     1  UNL1        0.1999
     44 O         139.0294  144.2932  161.2575 O.2     1  UNL1       -0.1542
     45 O         139.3253  144.2145  164.2417 O.2     1  UNL1       -0.1542
@<TRIPOS>BOND
     1    35    36    1
     2    36    37   am
     3    37    38    2
     4    37     1    1
     5     1     2   ar
     6     2    28    1
     7    28    29   ar
     8    29    30   ar
     9    30    31   ar
    10    31    32    1
    11    31    33   ar
    12    33    34   ar
    13     2     3   ar
    14     3     4   ar
    15     4     5   ar
    16     5     6   ar
    17     6    40    1
    18    40    41    1
    19    40    42    1
    20    42    43    1
    21    42    44    2
    22    42    45    2
    23     6     7   ar
    24     7    10    1
    25    10    11   ar
    26    11    12   ar
    27    12    13   ar
    28    13    14   ar
    29    14    15   ar
    30    15    16   ar
    31    16    17   ar
    32    17    18   ar
    33    18    19   ar
    34    19    20   ar
    35    20    21   ar
    36    21    22    1
    37    21    23   ar
    38    23    24   ar
    39    24    25   ar
    40    25    26   ar
    41    26    27   ar
    42     7     8   ar
    43     8     9   ar
    44     9     1   ar
    45    34    28   ar
    46     9     4   ar
    47    27    10   ar
    48    26    13   ar
    49    25    16   ar
    50    23    17   ar
    51    36    39    1
@<TRIPOS>MOLECULE
*****
 45 51 0 0 0
SMALL
GASTEIGER

@<TRIPOS>ATOM
      1 C         139.5755  141.2963  160.5250 C.ar    1  UNL1        0.0907
      2 C         139.9539  142.6831  160.9538 C.ar    1  UNL1        0.1496
      3 O         140.7906  143.2919  159.8680 O.2     1  UNL1       -0.4533
      4 C         140.9294  142.2815  158.7681 C.ar    1  UNL1        0.1467
      5 C         141.6426  142.3251  157.4492 C.ar    1  UNL1        0.0536
      6 C         141.6048  141.1354  156.5364 C.ar    1  UNL1        0.0730
      7 C         140.8538  139.9021  156.9425 C.ar    1  UNL1        0.0327
      8 C         140.1406  139.8584  158.2614 C.ar    1  UNL1        0.0061
      9 C         140.1784  141.0481  159.1742 C.ar    1  UNL1        0.0420
     10 C         140.8160  138.7123  156.0297 C.ar    1  UNL1        0.0827
     11 C         139.9552  138.7363  154.8015 C.ar    1  UNL1        0.0207
     12 C         139.9173  137.5467  153.8888 C.ar    1  UNL1        0.0223
     13 C         140.7403  136.3330  154.2042 C.ar    1  UNL1        0.1021
     14 N         140.7025  135.1432  153.2914 N.ar    1  UNL1       -0.2235
     15 C         141.5255  133.9295  153.6068 C.ar    1  UNL1        0.1828
     16 N         142.3863  133.9054  154.8349 N.ar    1  UNL1       -0.2877
     17 C         143.2992  132.8581  155.4004 C.ar    1  UNL1        0.0676
     18 C         143.6600  131.4806  154.9290 C.ar    1  UNL1        0.0177
     19 C         144.6229  130.6455  155.7198 C.ar    1  UNL1        0.0038
     20 C         145.2249  131.1879  156.9821 C.ar    1  UNL1        0.0297
     21 C         144.8641  132.5654  157.4535 C.ar    1  UNL1        0.1415
     22 F         145.4662  133.1079  158.7158 F       1  UNL1       -0.2041
     23 C         143.9012  133.4006  156.6627 C.ar    1  UNL1        0.0451
     24 C         143.3604  134.7831  156.8773 C.ar    1  UNL1        0.0228
     25 C         142.4242  135.0951  155.7477 C.ar    1  UNL1        0.0846
     26 C         141.6011  136.3089  155.4323 C.ar    1  UNL1        0.1149
     27 N         141.6390  137.4986  156.3451 N.ar    1  UNL1       -0.2423
     28 C         139.5640  143.3447  162.2423 C.ar    1  UNL1        0.0349
     29 C         138.1180  143.6073  162.5430 C.ar    1  UNL1        0.0053
     30 C         137.7281  144.2689  163.8314 C.ar    1  UNL1        0.0297
     31 C         138.7840  144.6680  164.8192 C.ar    1  UNL1        0.1401
     32 F         138.3940  145.3297  166.1077 F       1  UNL1       -0.2042
     33 C         140.2299  144.4055  164.5185 C.ar    1  UNL1        0.0297
     34 C         140.6199  143.7438  163.2301 C.ar    1  UNL1        0.0053
     35 C         138.4758  138.6920  163.3104 C.3     1  UNL1        0.1109
     36 N         139.3106  139.6605  162.5260 N.am    1  UNL1       -0.2991
     37 C         138.7408  140.3278  161.3094 C.2     1  UNL1        0.2490
     38 O         137.3364  140.0265  160.8772 O.2     1  UNL1       -0.2700
     39 H         140.2323  139.8583  162.8097 H       1  UNL1        0.1498
     40 N         142.3180  141.1790  155.2175 N.pl3   1  UNL1       -0.1924
     41 C         141.7611  141.9973  154.0905 C.3     1  UNL1        0.1388
     42 S         143.5880  140.4042  155.0256 S.O2    1  UNL1        0.0588
     43 C         144.8580  139.6295  154.8338 C.3     1  UNL1        0.1999
     44 O         143.0809  139.8992  153.7074 O.2     1  UNL1       -0.1542
     45 O         144.0952  140.9092  156.3438 O.2     1  UNL1       -0.1542
@<TRIPOS>BOND
     1    35    36    1
     2    36    37   am
     3    37    38    2
     4    37     1    1
     5     1     2   ar
     6     2    28    1
     7    28    29   ar
     8    29    30   ar
     9    30    31   ar
    10    31    32    1
    11    31    33   ar
    12    33    34   ar
    13     2     3   ar
    14     3     4   ar
    15     4     5   ar
    16     5     6   ar
    17     6    40    1
    18    40    41    1
    19    40    42    1
    20    42    43    1
    21    42    44    2
    22    42    45    2
    23     6     7   ar
    24     7    10    1
    25    10    11   ar
    26    11    12   ar
    27    12    13   ar
    28    13    14   ar
    29    14    15   ar
    30    15    16   ar
    31    16    17   ar
    32    17    18   ar
    33    18    19   ar
    34    19    20   ar
    35    20    21   ar
    36    21    22    1
    37    21    23   ar
    38    23    24   ar
    39    24    25   ar
    40    25    26   ar
    41    26    27   ar
    42     7     8   ar
    43     8     9   ar
    44     9     1   ar
    45    34    28   ar
    46     9     4   ar
    47    27    10   ar
    48    26    13   ar
    49    25    16   ar
    50    23    17   ar
    51    36    39    1
@<TRIPOS>MOLECULE
*****
 45 51 0 0 0
SMALL
GASTEIGER

@<TRIPOS>ATOM
      1 C         142.3695  133.8159  155.8444 C.ar    1  UNL1        0.0907
      2 C         141.6854  133.3780  154.5833 C.ar    1  UNL1        0.1496
      3 O         140.9611  134.5617  154.0139 O.2     1  UNL1       -0.4533
      4 C         141.1976  135.7311  154.9229 C.ar    1  UNL1        0.1467
      5 C         140.7328  137.1562  154.8667 C.ar    1  UNL1        0.0536
      6 C         141.1384  138.1203  155.9419 C.ar    1  UNL1        0.0730
      7 C         142.0089  137.6594  157.0732 C.ar    1  UNL1        0.0327
      8 C         142.4737  136.2344  157.1294 C.ar    1  UNL1        0.0061
      9 C         142.0681  135.2702  156.0543 C.ar    1  UNL1        0.0420
     10 C         142.4145  138.6236  158.1484 C.ar    1  UNL1        0.0827
     11 C         143.4670  139.6560  157.8718 C.ar    1  UNL1        0.0207
     12 C         143.8726  140.6201  158.9469 C.ar    1  UNL1        0.0223
     13 C         143.2259  140.5518  160.2985 C.ar    1  UNL1        0.1021
     14 N         143.6315  141.5160  161.3737 N.ar    1  UNL1       -0.2235
     15 C         142.9848  141.4477  162.7253 C.ar    1  UNL1        0.1828
     16 N         141.9323  140.4153  163.0019 N.ar    1  UNL1       -0.2877
     17 C         141.1246  140.1088  164.2282 C.ar    1  UNL1        0.0676
     18 C         141.0962  140.7311  165.5927 C.ar    1  UNL1        0.0177
     19 C         140.1630  140.1999  166.6400 C.ar    1  UNL1        0.0038
     20 C         139.2582  139.0464  166.3228 C.ar    1  UNL1        0.0297
     21 C         139.2866  138.4241  164.9582 C.ar    1  UNL1        0.1415
     22 F         138.3817  137.2705  164.6410 F       1  UNL1       -0.2041
     23 C         140.2198  138.9553  163.9109 C.ar    1  UNL1        0.0451
     24 C         140.4683  138.5488  162.4886 C.ar    1  UNL1        0.0228
     25 C         141.5266  139.4512  161.9268 C.ar    1  UNL1        0.0846
     26 C         142.1734  139.5194  160.5751 C.ar    1  UNL1        0.1149
     27 N         141.7677  138.5553  159.5000 N.ar    1  UNL1       -0.2423
     28 C         141.7196  131.9985  153.9951 C.ar    1  UNL1        0.0349
     29 C         140.5591  131.0693  154.1943 C.ar    1  UNL1        0.0053
     30 C         140.5932  129.6899  153.6060 C.ar    1  UNL1        0.0297
     31 C         141.7879  129.2397  152.8186 C.ar    1  UNL1        0.1401
     32 F         141.8221  127.8603  152.2303 F       1  UNL1       -0.2042
     33 C         142.9484  130.1690  152.6194 C.ar    1  UNL1        0.0297
     34 C         142.9143  131.5484  153.2076 C.ar    1  UNL1        0.0053
     35 C         145.4455  132.5013  157.9799 C.3     1  UNL1        0.1109
     36 N         144.6071  133.3659  157.0857 N.am    1  UNL1       -0.2991
     37 C         143.2079  132.9513  156.7386 C.2     1  UNL1        0.2490
     38 O         142.6473  131.6721  157.2856 O.2     1  UNL1       -0.2700
     39 H         144.9751  134.2055  156.7267 H       1  UNL1        0.1498
     40 N         140.6736  139.5454  155.8857 N.pl3   1  UNL1       -0.1924
     41 C         141.3014  140.5014  154.9152 C.3     1  UNL1        0.1388
     42 S         139.5809  140.0145  156.8001 S.O2    1  UNL1        0.0588
     43 C         138.4882  140.4835  157.7144 C.3     1  UNL1        0.1999
     44 O         140.4113  141.2037  157.1825 O.2     1  UNL1       -0.1542
     45 O         138.7505  138.8253  156.4177 O.2     1  UNL1       -0.1542
@<TRIPOS>BOND
     1    35    36    1
     2    36    37   am
     3    37    38    2
     4    37     1    1
     5     1     2   ar
     6     2    28    1
     7    28    29   ar
     8    29    30   ar
     9    30    31   ar
    10    31    32    1
    11    31    33   ar
    12    33    34   ar
    13     2     3   ar
    14     3     4   ar
    15     4     5   ar
    16     5     6   ar
    17     6    40    1
    18    40    41    1
    19    40    42    1
    20    42    43    1
    21    42    44    2
    22    42    45    2
    23     6     7   ar
    24     7    10    1
    25    10    11   ar
    26    11    12   ar
    27    12    13   ar
    28    13    14   ar
    29    14    15   ar
    30    15    16   ar
    31    16    17   ar
    32    17    18   ar
    33    18    19   ar
    34    19    20   ar
    35    20    21   ar
    36    21    22    1
    37    21    23   ar
    38    23    24   ar
    39    24    25   ar
    40    25    26   ar
    41    26    27   ar
    42     7     8   ar
    43     8     9   ar
    44     9     1   ar
    45    34    28   ar
    46     9     4   ar
    47    27    10   ar
    48    26    13   ar
    49    25    16   ar
    50    23    17   ar
    51    36    39    1
@<TRIPOS>MOLECULE
*****
 45 51 0 0 0
SMALL
GASTEIGER

@<TRIPOS>ATOM
      1 C         141.6805  141.2363  163.3867 C.ar    1  UNL1        0.0907
      2 C         140.9785  140.2601  164.2834 C.ar    1  UNL1        0.1496
      3 O         140.0927  139.4012  163.4304 O.2     1  UNL1       -0.4533
      4 C         140.2473  139.8466  162.0064 C.ar    1  UNL1        0.1467
      5 C         139.6213  139.3659  160.7308 C.ar    1  UNL1        0.0536
      6 C         139.9767  140.0195  159.4282 C.ar    1  UNL1        0.0730
      7 C         140.9580  141.1536  159.4012 C.ar    1  UNL1        0.0327
      8 C         141.5840  141.6342  160.6768 C.ar    1  UNL1        0.0061
      9 C         141.2287  140.9808  161.9794 C.ar    1  UNL1        0.0420
     10 C         141.3133  141.8071  158.0986 C.ar    1  UNL1        0.0827
     11 C         142.1853  141.0884  157.1122 C.ar    1  UNL1        0.0207
     12 C         142.5407  141.7418  155.8097 C.ar    1  UNL1        0.0223
     13 C         142.0240  143.1141  155.4935 C.ar    1  UNL1        0.1021
     14 N         142.3794  143.7676  154.1909 N.ar    1  UNL1       -0.2235
     15 C         141.8627  145.1398  153.8748 C.ar    1  UNL1        0.1828
     16 N         140.9906  145.8586  154.8612 N.ar    1  UNL1       -0.2877
     17 C         140.3379  147.2087  154.8267 C.ar    1  UNL1        0.0676
     18 C         140.3364  148.2967  153.7941 C.ar    1  UNL1        0.0177
     19 C         139.5762  149.5656  154.0427 C.ar    1  UNL1        0.0038
     20 C         138.8175  149.7466  155.3239 C.ar    1  UNL1        0.0297
     21 C         138.8189  148.6585  156.3565 C.ar    1  UNL1        0.1415
     22 F         138.0601  148.8395  157.6378 F       1  UNL1       -0.2041
     23 C         139.5792  147.3896  156.1079 C.ar    1  UNL1        0.0451
     24 C         139.7630  146.1513  156.9343 C.ar    1  UNL1        0.0228
     25 C         140.6353  145.2051  156.1637 C.ar    1  UNL1        0.0846
     26 C         141.1520  143.8328  156.4799 C.ar    1  UNL1        0.1149
     27 N         140.7966  143.1794  157.7825 N.ar    1  UNL1       -0.2423
     28 C         141.1348  140.1603  165.7720 C.ar    1  UNL1        0.0349
     29 C         140.0497  140.6663  166.6756 C.ar    1  UNL1        0.0053
     30 C         140.2060  140.5665  168.1641 C.ar    1  UNL1        0.0297
     31 C         141.4473  139.9608  168.7489 C.ar    1  UNL1        0.1401
     32 F         141.6036  139.8610  170.2375 F       1  UNL1       -0.2042
     33 C         142.5324  139.4548  167.8453 C.ar    1  UNL1        0.0297
     34 C         142.3761  139.5545  166.3568 C.ar    1  UNL1        0.0053
     35 C         143.3362  144.7838  164.0376 C.3     1  UNL1        0.1109
     36 N         142.3547  143.7360  163.6033 N.am    1  UNL1       -0.2991
     37 C         142.6621  142.2841  163.8209 C.2     1  UNL1        0.2490
     38 O         143.9512  141.8800  164.4728 O.2     1  UNL1       -0.2700
     39 H         141.5086  144.0013  163.1755 H       1  UNL1        0.1498
     40 N         139.3506  139.5388  158.1526 N.pl3   1  UNL1       -0.1924
     41 C         139.8357  138.2736  157.5093 C.3     1  UNL1        0.1388
     42 S         138.2395  140.3235  157.5203 S.O2    1  UNL1        0.0588
     43 C         137.1283  141.1081  156.8881 C.3     1  UNL1        0.1999
     44 O         138.9874  140.3351  156.2202 O.2     1  UNL1       -0.1542
     45 O         137.4915  140.3119  158.8205 O.2     1  UNL1       -0.1542
@<TRIPOS>BOND
     1    35    36    1
     2    36    37   am
     3    37    38    2
     4    37     1    1
     5     1     2   ar
     6     2    28    1
     7    28    29   ar
     8    29    30   ar
     9    30    31   ar
    10    31    32    1
    11    31    33   ar
    12    33    34   ar
    13     2     3   ar
    14     3     4   ar
    15     4     5   ar
    16     5     6   ar
    17     6    40    1
    18    40    41    1
    19    40    42    1
    20    42    43    1
    21    42    44    2
    22    42    45    2
    23     6     7   ar
    24     7    10    1
    25    10    11   ar
    26    11    12   ar
    27    12    13   ar
    28    13    14   ar
    29    14    15   ar
    30    15    16   ar
    31    16    17   ar
    32    17    18   ar
    33    18    19   ar
    34    19    20   ar
    35    20    21   ar
    36    21    22    1
    37    21    23   ar
    38    23    24   ar
    39    24    25   ar
    40    25    26   ar
    41    26    27   ar
    42     7     8   ar
    43     8     9   ar
    44     9     1   ar
    45    34    28   ar
    46     9     4   ar
    47    27    10   ar
    48    26    13   ar
    49    25    16   ar
    50    23    17   ar
    51    36    39    1
@<TRIPOS>MOLECULE
*****
 45 51 0 0 0
SMALL
GASTEIGER

@<TRIPOS>ATOM
      1 C         141.6710  141.1538  163.5432 C.ar    1  UNL1        0.0907
      2 C         141.3759  139.9462  164.3826 C.ar    1  UNL1        0.1496
      3 O         141.0766  138.8022  163.4597 O.2     1  UNL1       -0.4533
      4 C         141.1867  139.3028  162.0500 C.ar    1  UNL1        0.1467
      5 C         140.9999  138.6230  160.7260 C.ar    1  UNL1        0.0536
      6 C         141.1805  139.3966  159.4536 C.ar    1  UNL1        0.0730
      7 C         141.5478  140.8500  159.5052 C.ar    1  UNL1        0.0327
      8 C         141.7346  141.5298  160.8292 C.ar    1  UNL1        0.0061
      9 C         141.5540  140.7562  162.1016 C.ar    1  UNL1        0.0420
     10 C         141.7283  141.6237  158.2328 C.ar    1  UNL1        0.0827
     11 C         140.5538  142.3066  157.5973 C.ar    1  UNL1        0.0207
     12 C         140.7342  143.0802  156.3249 C.ar    1  UNL1        0.0223
     13 C         142.0893  143.1709  155.6882 C.ar    1  UNL1        0.1021
     14 N         142.2699  143.9446  154.4158 N.ar    1  UNL1       -0.2235
     15 C         143.6249  144.0353  153.7790 C.ar    1  UNL1        0.1828
     16 N         144.7995  143.3524  154.4146 N.ar    1  UNL1       -0.2877
     17 C         146.2443  143.2663  154.0208 C.ar    1  UNL1        0.0676
     18 C         147.0033  143.8340  152.8582 C.ar    1  UNL1        0.0177
     19 C         148.4747  143.5748  152.7245 C.ar    1  UNL1        0.0038
     20 C         149.1871  142.7480  153.7534 C.ar    1  UNL1        0.0297
     21 C         148.4281  142.1803  154.9161 C.ar    1  UNL1        0.1415
     22 F         149.1406  141.3534  155.9451 F       1  UNL1       -0.2041
     23 C         146.9568  142.4394  155.0498 C.ar    1  UNL1        0.0451
     24 C         145.9522  142.0145  156.0795 C.ar    1  UNL1        0.0228
     25 C         144.6190  142.5788  155.6870 C.ar    1  UNL1        0.0846
     26 C         143.2639  142.4880  156.3238 C.ar    1  UNL1        0.1149
     27 N         143.0834  141.7144  157.5961 N.ar    1  UNL1       -0.2423
     28 C         141.3795  139.8920  165.8816 C.ar    1  UNL1        0.0349
     29 C         142.6311  139.5109  166.6153 C.ar    1  UNL1        0.0053
     30 C         142.6347  139.4567  168.1143 C.ar    1  UNL1        0.0297
     31 C         141.3868  139.7838  168.8796 C.ar    1  UNL1        0.1401
     32 F         141.3904  139.7296  170.3787 F       1  UNL1       -0.2042
     33 C         140.1353  140.1649  168.1459 C.ar    1  UNL1        0.0297
     34 C         140.1316  140.2191  166.6469 C.ar    1  UNL1        0.0053
     35 C         143.6850  144.5097  164.2001 C.3     1  UNL1        0.1109
     36 N         143.3346  143.1442  163.6878 N.am    1  UNL1       -0.2991
     37 C         142.0214  142.5194  164.0555 C.2     1  UNL1        0.2490
     38 O         141.0588  143.2602  164.9355 O.2     1  UNL1       -0.2700
     39 H         143.9664  142.6580  163.1102 H       1  UNL1        0.1498
     40 N         140.9937  138.7168  158.1296 N.pl3   1  UNL1       -0.1924
     41 C         139.6127  138.3996  157.6376 C.3     1  UNL1        0.1388
     42 S         142.1881  138.3542  157.2976 S.O2    1  UNL1        0.0588
     43 C         143.3824  137.9915  156.4657 C.3     1  UNL1        0.1999
     44 O         141.5512  138.9988  156.1023 O.2     1  UNL1       -0.1542
     45 O         142.8249  137.7095  158.4929 O.2     1  UNL1       -0.1542
@<TRIPOS>BOND
     1    35    36    1
     2    36    37   am
     3    37    38    2
     4    37     1    1
     5     1     2   ar
     6     2    28    1
     7    28    29   ar
     8    29    30   ar
     9    30    31   ar
    10    31    32    1
    11    31    33   ar
    12    33    34   ar
    13     2     3   ar
    14     3     4   ar
    15     4     5   ar
    16     5     6   ar
    17     6    40    1
    18    40    41    1
    19    40    42    1
    20    42    43    1
    21    42    44    2
    22    42    45    2
    23     6     7   ar
    24     7    10    1
    25    10    11   ar
    26    11    12   ar
    27    12    13   ar
    28    13    14   ar
    29    14    15   ar
    30    15    16   ar
    31    16    17   ar
    32    17    18   ar
    33    18    19   ar
    34    19    20   ar
    35    20    21   ar
    36    21    22    1
    37    21    23   ar
    38    23    24   ar
    39    24    25   ar
    40    25    26   ar
    41    26    27   ar
    42     7     8   ar
    43     8     9   ar
    44     9     1   ar
    45    34    28   ar
    46     9     4   ar
    47    27    10   ar
    48    26    13   ar
    49    25    16   ar
    50    23    17   ar
    51    36    39    1
@<TRIPOS>MOLECULE
*****
 45 51 0 0 0
SMALL
GASTEIGER

@<TRIPOS>ATOM
      1 C         140.9112  141.2011  163.8807 C.ar    1  UNL1        0.0907
      2 C         140.8785  139.9793  164.7503 C.ar    1  UNL1        0.1496
      3 O         141.0029  138.7758  163.8636 O.2     1  UNL1       -0.4533
      4 C         141.1124  139.2539  162.4460 C.ar    1  UNL1        0.1467
      5 C         141.2563  138.5179  161.1469 C.ar    1  UNL1        0.0536
      6 C         141.3437  139.2810  159.8584 C.ar    1  UNL1        0.0730
      7 C         141.2870  140.7798  159.8690 C.ar    1  UNL1        0.0327
      8 C         141.1431  141.5157  161.1681 C.ar    1  UNL1        0.0061
      9 C         141.0557  140.7528  162.4566 C.ar    1  UNL1        0.0420
     10 C         141.3744  141.5428  158.5805 C.ar    1  UNL1        0.0827
     11 C         140.1399  142.1515  157.9841 C.ar    1  UNL1        0.0207
     12 C         140.2272  142.9145  156.6957 C.ar    1  UNL1        0.0223
     13 C         141.5489  143.0688  156.0035 C.ar    1  UNL1        0.1021
     14 N         141.6363  143.8318  154.7150 N.ar    1  UNL1       -0.2235
     15 C         142.9580  143.9862  154.0229 C.ar    1  UNL1        0.1828
     16 N         144.1925  143.3775  154.6192 N.ar    1  UNL1       -0.2877
     17 C         145.6231  143.3638  154.1684 C.ar    1  UNL1        0.0676
     18 C         146.3031  143.9542  152.9688 C.ar    1  UNL1        0.0177
     19 C         147.7800  143.7731  152.7790 C.ar    1  UNL1        0.0038
     20 C         148.5768  143.0016  153.7889 C.ar    1  UNL1        0.0297
     21 C         147.8968  142.4112  154.9885 C.ar    1  UNL1        0.1415
     22 F         148.6937  141.6398  155.9984 F       1  UNL1       -0.2041
     23 C         146.4199  142.5923  155.1783 C.ar    1  UNL1        0.0451
     24 C         145.4818  142.1292  156.2532 C.ar    1  UNL1        0.0228
     25 C         144.1052  142.6145  155.9076 C.ar    1  UNL1        0.0846
     26 C         142.7834  142.4602  156.5999 C.ar    1  UNL1        0.1149
     27 N         142.6961  141.6972  157.8883 N.ar    1  UNL1       -0.2423
     28 C         140.7450  139.9637  166.2443 C.ar    1  UNL1        0.0349
     29 C         139.3859  140.0209  166.8764 C.ar    1  UNL1        0.0053
     30 C         139.2523  140.0053  168.3703 C.ar    1  UNL1        0.0297
     31 C         140.4778  139.9325  169.2322 C.ar    1  UNL1        0.1401
     32 F         140.3443  139.9170  170.7262 F       1  UNL1       -0.2042
     33 C         141.8369  139.8754  168.6000 C.ar    1  UNL1        0.0297
     34 C         141.9705  139.8910  167.1061 C.ar    1  UNL1        0.0053
     35 C         139.4327  144.7968  164.6777 C.3     1  UNL1        0.1109
     36 N         139.5278  143.3761  164.2059 N.am    1  UNL1       -0.2991
     37 C         140.8161  142.6218  164.3524 C.2     1  UNL1        0.2490
     38 O         142.0091  143.2883  164.9707 O.2     1  UNL1       -0.2700
     39 H         138.7447  142.9386  163.8002 H       1  UNL1        0.1498
     40 N         141.4877  138.5450  158.5593 N.pl3   1  UNL1       -0.1924
     41 C         142.7207  137.7348  158.2889 C.3     1  UNL1        0.1388
     42 S         140.3985  138.6194  157.5305 S.O2    1  UNL1        0.0588
     43 C         139.3094  138.6937  156.5018 C.3     1  UNL1        0.1999
     44 O         141.4226  138.8747  156.4647 O.2     1  UNL1       -0.1542
     45 O         139.3744  138.3641  158.5963 O.2     1  UNL1       -0.1542
@<TRIPOS>BOND
     1    35    36    1
     2    36    37   am
     3    37    38    2
     4    37     1    1
     5     1     2   ar
     6     2    28    1
     7    28    29   ar
     8    29    30   ar
     9    30    31   ar
    10    31    32    1
    11    31    33   ar
    12    33    34   ar
    13     2     3   ar
    14     3     4   ar
    15     4     5   ar
    16     5     6   ar
    17     6    40    1
    18    40    41    1
    19    40    42    1
    20    42    43    1
    21    42    44    2
    22    42    45    2
    23     6     7   ar
    24     7    10    1
    25    10    11   ar
    26    11    12   ar
    27    12    13   ar
    28    13    14   ar
    29    14    15   ar
    30    15    16   ar
    31    16    17   ar
    32    17    18   ar
    33    18    19   ar
    34    19    20   ar
    35    20    21   ar
    36    21    22    1
    37    21    23   ar
    38    23    24   ar
    39    24    25   ar
    40    25    26   ar
    41    26    27   ar
    42     7     8   ar
    43     8     9   ar
    44     9     1   ar
    45    34    28   ar
    46     9     4   ar
    47    27    10   ar
    48    26    13   ar
    49    25    16   ar
    50    23    17   ar
    51    36    39    1
