@<TRIPOS>MOLECULE
*****
 30 33 0 0 0
SMALL
GASTEIGER

@<TRIPOS>ATOM
      1 O         143.4878  141.1780  160.9781 O.2     1  UNL1       -0.2698
      2 C         142.9197  142.4335  160.3857 C.2     1  UNL1        0.2524
      3 C         142.2438  143.3609  161.3517 C.ar    1  UNL1        0.0875
      4 C         142.2809  142.8183  162.7496 C.ar    1  UNL1        0.0076
      5 C         141.6580  143.5943  163.8720 C.ar    1  UNL1        0.0003
      6 C         140.9980  144.9128  163.5965 C.ar    1  UNL1        0.0031
      7 C         140.9610  145.4554  162.1986 C.ar    1  UNL1        0.0370
      8 C         141.5839  144.6795  161.0762 C.ar    1  UNL1        0.1429
      9 O         141.4369  145.3962  159.7667 O.3     1  UNL1       -0.4735
     10 C         141.9135  144.9716  158.4094 C.3     1  UNL1        0.2268
     11 C         142.6548  143.7251  158.0262 C.3     1  UNL1        0.1414
     12 N         143.1027  142.5955  158.9058 N.am    1  UNL1       -0.2651
     13 C         141.6950  143.0517  165.2700 C.ar    1  UNL1        0.0002
     14 C         140.4425  143.0174  166.0946 C.ar    1  UNL1        0.0031
     15 C         140.4794  142.4748  167.4925 C.ar    1  UNL1        0.0372
     16 C         141.7690  141.9665  168.0659 C.ar    1  UNL1        0.1468
     17 C         143.0216  142.0008  167.2413 C.ar    1  UNL1        0.0372
     18 C         142.9845  142.5434  165.8433 C.ar    1  UNL1        0.0031
     19 O         141.8060  141.4240  169.4638 O.3     1  UNL1       -0.4045
     20 C         142.1473  139.9825  169.7001 C.3     1  UNL1        0.5753
     21 F         142.4885  138.5411  169.9364 F       1  UNL1       -0.1328
     22 F         143.4553  140.3921  170.3094 F       1  UNL1       -0.1328
     23 F         140.8392  139.5730  169.0908 F       1  UNL1       -0.1328
     24 C         143.8295  141.4807  158.2139 C.3     1  UNL1        0.1597
     25 C         145.1159  141.7573  157.4937 C.ar    1  UNL1        0.1592
     26 N         146.1123  142.7138  158.0786 N.ar    1  UNL1       -0.2274
     27 C         147.3987  142.9903  157.3584 C.ar    1  UNL1        0.1019
     28 C         147.6887  142.3104  156.0532 C.ar    1  UNL1        0.0413
     29 C         146.6923  141.3538  155.4683 C.ar    1  UNL1        0.1019
     30 N         145.4059  141.0772  156.1885 N.ar    1  UNL1       -0.2274
@<TRIPOS>BOND
     1     1     2    2
     2     2     3    1
     3     3     4   ar
     4     4     5   ar
     5     5    13    1
     6    13    14   ar
     7    14    15   ar
     8    15    16   ar
     9    16    19    1
    10    19    20    1
    11    20    21    1
    12    20    22    1
    13    20    23    1
    14    16    17   ar
    15    17    18   ar
    16     5     6   ar
    17     6     7   ar
    18     7     8   ar
    19     8     9    1
    20     9    10    1
    21    10    11    1
    22    11    12    1
    23    12    24    1
    24    24    25    1
    25    25    26   ar
    26    26    27   ar
    27    27    28   ar
    28    28    29   ar
    29    29    30   ar
    30    12     2   am
    31    30    25   ar
    32     8     3   ar
    33    18    13   ar
@<TRIPOS>MOLECULE
*****
 30 33 0 0 0
SMALL
GASTEIGER

@<TRIPOS>ATOM
      1 O         142.3882  138.0688  160.7764 O.2     1  UNL1       -0.2698
      2 C         141.2655  138.4919  159.8761 C.2     1  UNL1        0.2524
      3 C         140.0554  139.0513  160.5638 C.ar    1  UNL1        0.0875
      4 C         140.2309  139.0693  162.0533 C.ar    1  UNL1        0.0076
      5 C         139.1332  139.5926  162.9315 C.ar    1  UNL1        0.0003
      6 C         137.8601  140.0980  162.3201 C.ar    1  UNL1        0.0031
      7 C         137.6846  140.0800  160.8305 C.ar    1  UNL1        0.0370
      8 C         138.7823  139.5567  159.9524 C.ar    1  UNL1        0.1429
      9 O         138.4049  139.6274  158.5023 O.3     1  UNL1       -0.4735
     10 C         139.2073  139.2103  157.3056 C.3     1  UNL1        0.2268
     11 C         140.5853  138.6194  157.2633 C.3     1  UNL1        0.1414
     12 N         141.5014  138.2997  158.4073 N.am    1  UNL1       -0.2651
     13 C         139.3086  139.6106  164.4211 C.ar    1  UNL1        0.0002
     14 C         140.5771  140.1412  165.0206 C.ar    1  UNL1        0.0031
     15 C         140.7525  140.1593  166.5102 C.ar    1  UNL1        0.0372
     16 C         139.6594  139.6466  167.4004 C.ar    1  UNL1        0.1468
     17 C         138.3909  139.1160  166.8009 C.ar    1  UNL1        0.0372
     18 C         138.2155  139.0980  165.3113 C.ar    1  UNL1        0.0031
     19 O         139.8348  139.6646  168.8899 O.3     1  UNL1       -0.4045
     20 C         139.3850  140.8552  169.6838 C.3     1  UNL1        0.5753
     21 F         138.9353  142.0458  170.4776 F       1  UNL1       -0.1328
     22 F         138.1039  140.1495  170.0163 F       1  UNL1       -0.1328
     23 F         140.6662  141.5609  169.3512 F       1  UNL1       -0.1328
     24 C         142.8287  137.7097  158.0330 C.3     1  UNL1        0.1597
     25 C         142.8935  136.5542  157.0788 C.ar    1  UNL1        0.1592
     26 N         142.9881  135.1523  157.6039 N.ar    1  UNL1       -0.2274
     27 C         143.0529  133.9968  156.6496 C.ar    1  UNL1        0.1019
     28 C         143.0232  134.2431  155.1703 C.ar    1  UNL1        0.0413
     29 C         142.9287  135.6451  154.6453 C.ar    1  UNL1        0.1019
     30 N         142.8639  136.8006  155.5994 N.ar    1  UNL1       -0.2274
@<TRIPOS>BOND
     1     1     2    2
     2     2     3    1
     3     3     4   ar
     4     4     5   ar
     5     5    13    1
     6    13    14   ar
     7    14    15   ar
     8    15    16   ar
     9    16    19    1
    10    19    20    1
    11    20    21    1
    12    20    22    1
    13    20    23    1
    14    16    17   ar
    15    17    18   ar
    16     5     6   ar
    17     6     7   ar
    18     7     8   ar
    19     8     9    1
    20     9    10    1
    21    10    11    1
    22    11    12    1
    23    12    24    1
    24    24    25    1
    25    25    26   ar
    26    26    27   ar
    27    27    28   ar
    28    28    29   ar
    29    29    30   ar
    30    12     2   am
    31    30    25   ar
    32     8     3   ar
    33    18    13   ar
@<TRIPOS>MOLECULE
*****
 30 33 0 0 0
SMALL
GASTEIGER

@<TRIPOS>ATOM
      1 O         139.7774  138.1295  160.7628 O.2     1  UNL1       -0.2698
      2 C         139.3215  139.3929  160.0949 C.2     1  UNL1        0.2524
      3 C         138.9256  140.5092  161.0153 C.ar    1  UNL1        0.0875
      4 C         139.0744  140.1122  162.4541 C.ar    1  UNL1        0.0076
      5 C         138.7298  141.0872  163.5406 C.ar    1  UNL1        0.0003
      6 C         138.2365  142.4592  163.1883 C.ar    1  UNL1        0.0031
      7 C         138.0876  142.8563  161.7496 C.ar    1  UNL1        0.0370
      8 C         138.4322  141.8813  160.6630 C.ar    1  UNL1        0.1429
      9 O         138.2129  142.4758  159.3034 O.3     1  UNL1       -0.4735
     10 C         138.4329  141.8452  157.9603 C.3     1  UNL1        0.2268
     11 C         138.9264  140.4642  157.6451 C.3     1  UNL1        0.1414
     12 N         139.3219  139.3728  158.5950 N.am    1  UNL1       -0.2651
     13 C         138.8787  140.6902  164.9795 C.ar    1  UNL1        0.0002
     14 C         139.7666  141.4864  165.8892 C.ar    1  UNL1        0.0031
     15 C         139.9155  141.0894  167.3280 C.ar    1  UNL1        0.0372
     16 C         139.1763  139.8962  167.8572 C.ar    1  UNL1        0.1468
     17 C         138.2884  139.1000  166.9475 C.ar    1  UNL1        0.0372
     18 C         138.1396  139.4970  165.5086 C.ar    1  UNL1        0.0031
     19 O         139.3252  139.4993  169.2960 O.3     1  UNL1       -0.4045
     20 C         140.0321  140.4096  170.2559 C.3     1  UNL1        0.5753
     21 F         140.7391  141.3200  171.2158 F       1  UNL1       -0.1328
     22 F         138.8322  141.3093  170.2864 F       1  UNL1       -0.1328
     23 F         141.2320  139.5100  170.2254 F       1  UNL1       -0.1328
     24 C         139.7781  138.0921  157.9614 C.3     1  UNL1        0.1597
     25 C         139.7669  137.9485  156.4683 C.ar    1  UNL1        0.1592
     26 N         140.9758  138.3344  155.6686 N.ar    1  UNL1       -0.2274
     27 C         140.9645  138.1908  154.1756 C.ar    1  UNL1        0.1019
     28 C         139.7444  137.6612  153.4821 C.ar    1  UNL1        0.0413
     29 C         138.5355  137.2752  154.2819 C.ar    1  UNL1        0.1019
     30 N         138.5467  137.4188  155.7750 N.ar    1  UNL1       -0.2274
@<TRIPOS>BOND
     1     1     2    2
     2     2     3    1
     3     3     4   ar
     4     4     5   ar
     5     5    13    1
     6    13    14   ar
     7    14    15   ar
     8    15    16   ar
     9    16    19    1
    10    19    20    1
    11    20    21    1
    12    20    22    1
    13    20    23    1
    14    16    17   ar
    15    17    18   ar
    16     5     6   ar
    17     6     7   ar
    18     7     8   ar
    19     8     9    1
    20     9    10    1
    21    10    11    1
    22    11    12    1
    23    12    24    1
    24    24    25    1
    25    25    26   ar
    26    26    27   ar
    27    27    28   ar
    28    28    29   ar
    29    29    30   ar
    30    12     2   am
    31    30    25   ar
    32     8     3   ar
    33    18    13   ar
@<TRIPOS>MOLECULE
*****
 30 33 0 0 0
SMALL
GASTEIGER

@<TRIPOS>ATOM
      1 O         141.9733  138.2703  161.5377 O.2     1  UNL1       -0.2698
      2 C         140.9283  138.8500  160.6311 C.2     1  UNL1        0.2524
      3 C         139.7692  139.5131  161.3144 C.ar    1  UNL1        0.0875
      4 C         139.9059  139.4536  162.8070 C.ar    1  UNL1        0.0076
      5 C         138.8495  140.0609  163.6816 C.ar    1  UNL1        0.0003
      6 C         137.6564  140.7277  163.0637 C.ar    1  UNL1        0.0031
      7 C         137.5197  140.7872  161.5712 C.ar    1  UNL1        0.0370
      8 C         138.5761  140.1799  160.6965 C.ar    1  UNL1        0.1429
      9 O         138.2474  140.3483  159.2427 O.3     1  UNL1       -0.4735
     10 C         139.0306  139.8916  158.0477 C.3     1  UNL1        0.2268
     11 C         140.3360  139.1535  158.0114 C.3     1  UNL1        0.1414
     12 N         141.1806  138.6899  159.1612 N.am    1  UNL1       -0.2651
     13 C         138.9861  140.0015  165.1742 C.ar    1  UNL1        0.0002
     14 C         138.1075  139.0839  165.9718 C.ar    1  UNL1        0.0031
     15 C         138.2442  139.0244  167.4644 C.ar    1  UNL1        0.0372
     16 C         139.2594  139.8825  168.1594 C.ar    1  UNL1        0.1468
     17 C         140.1379  140.8001  167.3618 C.ar    1  UNL1        0.0372
     18 C         140.0013  140.8596  165.8692 C.ar    1  UNL1        0.0031
     19 O         139.3960  139.8230  169.6520 O.3     1  UNL1       -0.4045
     20 C         140.6197  140.3812  170.3160 C.3     1  UNL1        0.5753
     21 F         141.8435  140.9393  170.9800 F       1  UNL1       -0.1328
     22 F         141.3581  139.1083  170.0252 F       1  UNL1       -0.1328
     23 F         139.8814  141.6541  170.6067 F       1  UNL1       -0.1328
     24 C         142.4445  137.9714  158.7921 C.3     1  UNL1        0.1597
     25 C         143.2842  138.4681  157.6527 C.ar    1  UNL1        0.1592
     26 N         143.4851  137.6097  156.4392 N.ar    1  UNL1       -0.2274
     27 C         144.3248  138.1064  155.2999 C.ar    1  UNL1        0.1019
     28 C         144.9638  139.4614  155.3740 C.ar    1  UNL1        0.0413
     29 C         144.7629  140.3198  156.5877 C.ar    1  UNL1        0.1019
     30 N         143.9232  139.8232  157.7270 N.ar    1  UNL1       -0.2274
@<TRIPOS>BOND
     1     1     2    2
     2     2     3    1
     3     3     4   ar
     4     4     5   ar
     5     5    13    1
     6    13    14   ar
     7    14    15   ar
     8    15    16   ar
     9    16    19    1
    10    19    20    1
    11    20    21    1
    12    20    22    1
    13    20    23    1
    14    16    17   ar
    15    17    18   ar
    16     5     6   ar
    17     6     7   ar
    18     7     8   ar
    19     8     9    1
    20     9    10    1
    21    10    11    1
    22    11    12    1
    23    12    24    1
    24    24    25    1
    25    25    26   ar
    26    26    27   ar
    27    27    28   ar
    28    28    29   ar
    29    29    30   ar
    30    12     2   am
    31    30    25   ar
    32     8     3   ar
    33    18    13   ar
@<TRIPOS>MOLECULE
*****
 30 33 0 0 0
SMALL
GASTEIGER

@<TRIPOS>ATOM
      1 O         139.3604  140.9710  160.2993 O.2     1  UNL1       -0.2698
      2 C         139.6718  142.4214  160.0766 C.2     1  UNL1        0.2524
      3 C         139.9236  143.2304  161.3144 C.ar    1  UNL1        0.0875
      4 C         139.8067  142.3903  162.5515 C.ar    1  UNL1        0.0076
      5 C         140.0223  143.0085  163.9010 C.ar    1  UNL1        0.0003
      6 C         140.3547  144.4668  164.0135 C.ar    1  UNL1        0.0031
      7 C         140.4715  145.3070  162.7764 C.ar    1  UNL1        0.0370
      8 C         140.2560  144.6888  161.4269 C.ar    1  UNL1        0.1429
      9 O         140.4186  145.6983  160.3293 O.3     1  UNL1       -0.4735
     10 C         140.2891  145.4988  158.8483 C.3     1  UNL1        0.2268
     11 C         139.9649  144.2404  158.0990 C.3     1  UNL1        0.1414
     12 N         139.6901  142.8708  158.6456 N.am    1  UNL1       -0.2651
     13 C         139.9055  142.1683  165.1382 C.ar    1  UNL1        0.0002
     14 C         139.1420  140.8777  165.0990 C.ar    1  UNL1        0.0031
     15 C         139.0252  140.0376  166.3361 C.ar    1  UNL1        0.0372
     16 C         139.6718  140.4879  167.6125 C.ar    1  UNL1        0.1468
     17 C         140.4353  141.7785  167.6517 C.ar    1  UNL1        0.0372
     18 C         140.5521  142.6187  166.4145 C.ar    1  UNL1        0.0031
     19 O         139.5550  139.6478  168.8495 O.3     1  UNL1       -0.4045
     20 C         140.0219  140.1869  170.1692 C.3     1  UNL1        0.5753
     21 F         140.4888  140.7259  171.4888 F       1  UNL1       -0.1328
     22 F         141.2737  139.3676  170.0609 F       1  UNL1       -0.1328
     23 F         138.7700  141.0061  170.2774 F       1  UNL1       -0.1328
     24 C         139.3947  141.8105  157.6266 C.3     1  UNL1        0.1597
     25 C         138.0891  141.8230  156.8881 C.ar    1  UNL1        0.1592
     26 N         137.0639  140.7621  157.1591 N.ar    1  UNL1       -0.2274
     27 C         135.7585  140.7747  156.4206 C.ar    1  UNL1        0.1019
     28 C         135.4780  141.8482  155.4111 C.ar    1  UNL1        0.0413
     29 C         136.5033  142.9091  155.1402 C.ar    1  UNL1        0.1019
     30 N         137.8088  142.8966  155.8786 N.ar    1  UNL1       -0.2274
@<TRIPOS>BOND
     1     1     2    2
     2     2     3    1
     3     3     4   ar
     4     4     5   ar
     5     5    13    1
     6    13    14   ar
     7    14    15   ar
     8    15    16   ar
     9    16    19    1
    10    19    20    1
    11    20    21    1
    12    20    22    1
    13    20    23    1
    14    16    17   ar
    15    17    18   ar
    16     5     6   ar
    17     6     7   ar
    18     7     8   ar
    19     8     9    1
    20     9    10    1
    21    10    11    1
    22    11    12    1
    23    12    24    1
    24    24    25    1
    25    25    26   ar
    26    26    27   ar
    27    27    28   ar
    28    28    29   ar
    29    29    30   ar
    30    12     2   am
    31    30    25   ar
    32     8     3   ar
    33    18    13   ar
@<TRIPOS>MOLECULE
*****
 30 33 0 0 0
SMALL
GASTEIGER

@<TRIPOS>ATOM
      1 O         143.6130  141.0424  161.2639 O.2     1  UNL1       -0.2698
      2 C         143.0395  142.2866  160.6532 C.2     1  UNL1        0.2524
      3 C         142.3358  143.2121  161.6011 C.ar    1  UNL1        0.0875
      4 C         142.3560  142.6796  163.0032 C.ar    1  UNL1        0.0076
      5 C         141.7046  143.4553  164.1095 C.ar    1  UNL1        0.0003
      6 C         141.0331  144.7636  163.8136 C.ar    1  UNL1        0.0031
      7 C         141.0130  145.2961  162.4115 C.ar    1  UNL1        0.0370
      8 C         141.6643  144.5203  161.3053 C.ar    1  UNL1        0.1429
      9 O         141.5306  145.2262  159.9884 O.3     1  UNL1       -0.4735
     10 C         142.0353  144.7982  158.6423 C.3     1  UNL1        0.2268
     11 C         142.7984  143.5585  158.2805 C.3     1  UNL1        0.1414
     12 N         143.2454  142.4407  159.1754 N.am    1  UNL1       -0.2651
     13 C         141.7248  142.9229  165.5117 C.ar    1  UNL1        0.0002
     14 C         143.0032  142.4007  166.0974 C.ar    1  UNL1        0.0031
     15 C         143.0234  141.8682  167.4995 C.ar    1  UNL1        0.0372
     16 C         141.7651  141.8579  168.3161 C.ar    1  UNL1        0.1468
     17 C         140.4867  142.3801  167.7304 C.ar    1  UNL1        0.0372
     18 C         140.4665  142.9126  166.3282 C.ar    1  UNL1        0.0031
     19 O         141.7853  141.3254  169.7182 O.3     1  UNL1       -0.4045
     20 C         142.1004  139.8802  169.9672 C.3     1  UNL1        0.5753
     21 F         142.4154  138.4349  170.2161 F       1  UNL1       -0.1328
     22 F         140.7543  139.4941  169.4295 F       1  UNL1       -0.1328
     23 F         143.4464  140.2663  170.5049 F       1  UNL1       -0.1328
     24 C         143.9976  141.3304  158.5038 C.3     1  UNL1        0.1597
     25 C         143.2578  140.1413  157.9661 C.ar    1  UNL1        0.1592
     26 N         142.3691  140.2903  156.7669 N.ar    1  UNL1       -0.2274
     27 C         141.6294  139.1013  156.2293 C.ar    1  UNL1        0.1019
     28 C         141.7784  137.7633  156.8908 C.ar    1  UNL1        0.0413
     29 C         142.6671  137.6144  158.0900 C.ar    1  UNL1        0.1019
     30 N         143.4069  138.8033  158.6276 N.ar    1  UNL1       -0.2274
@<TRIPOS>BOND
     1     1     2    2
     2     2     3    1
     3     3     4   ar
     4     4     5   ar
     5     5    13    1
     6    13    14   ar
     7    14    15   ar
     8    15    16   ar
     9    16    19    1
    10    19    20    1
    11    20    21    1
    12    20    22    1
    13    20    23    1
    14    16    17   ar
    15    17    18   ar
    16     5     6   ar
    17     6     7   ar
    18     7     8   ar
    19     8     9    1
    20     9    10    1
    21    10    11    1
    22    11    12    1
    23    12    24    1
    24    24    25    1
    25    25    26   ar
    26    26    27   ar
    27    27    28   ar
    28    28    29   ar
    29    29    30   ar
    30    12     2   am
    31    30    25   ar
    32     8     3   ar
    33    18    13   ar
@<TRIPOS>MOLECULE
*****
 30 33 0 0 0
SMALL
GASTEIGER

@<TRIPOS>ATOM
      1 O         142.0235  140.0343  161.0682 O.2     1  UNL1       -0.2698
      2 C         141.0813  140.9669  160.3666 C.2     1  UNL1        0.2524
      3 C         139.9818  141.5386  161.2117 C.ar    1  UNL1        0.0875
      4 C         140.0608  141.0402  162.6243 C.ar    1  UNL1        0.0076
      5 C         139.0505  141.4923  163.6366 C.ar    1  UNL1        0.0003
      6 C         137.9613  142.4428  163.2365 C.ar    1  UNL1        0.0031
      7 C         137.8823  142.9412  161.8240 C.ar    1  UNL1        0.0370
      8 C         138.8926  142.4891  160.8116 C.ar    1  UNL1        0.1429
      9 O         138.6339  143.1027  159.4675 O.3     1  UNL1       -0.4735
     10 C         139.4004  142.9173  158.1915 C.3     1  UNL1        0.2268
     11 C         140.6151  142.0725  157.9446 C.3     1  UNL1        0.1414
     12 N         141.3632  141.2045  158.9126 N.am    1  UNL1       -0.2651
     13 C         139.1294  140.9938  165.0493 C.ar    1  UNL1        0.0002
     14 C         138.3113  139.8104  165.4738 C.ar    1  UNL1        0.0031
     15 C         138.3902  139.3119  166.8863 C.ar    1  UNL1        0.0372
     16 C         139.2872  139.9969  167.8744 C.ar    1  UNL1        0.1468
     17 C         140.1053  141.1803  167.4499 C.ar    1  UNL1        0.0372
     18 C         140.0264  141.6788  166.0373 C.ar    1  UNL1        0.0031
     19 O         139.3661  139.4984  169.2869 O.3     1  UNL1       -0.4045
     20 C         139.9901  140.3530  170.3501 C.3     1  UNL1        0.5753
     21 F         140.6140  141.2076  171.4133 F       1  UNL1       -0.1328
     22 F         141.1757  139.4352  170.3921 F       1  UNL1       -0.1328
     23 F         138.8044  141.2709  170.3081 F       1  UNL1       -0.1328
     24 C         142.5500  140.4781  158.3525 C.3     1  UNL1        0.1597
     25 C         142.3575  139.1935  157.6022 C.ar    1  UNL1        0.1592
     26 N         141.0135  138.5276  157.5876 N.ar    1  UNL1       -0.2274
     27 C         140.8211  137.2431  156.8373 C.ar    1  UNL1        0.1019
     28 C         141.9727  136.6245  156.1015 C.ar    1  UNL1        0.0413
     29 C         143.3166  137.2905  156.1161 C.ar    1  UNL1        0.1019
     30 N         143.5091  138.5750  156.8664 N.ar    1  UNL1       -0.2274
@<TRIPOS>BOND
     1     1     2    2
     2     2     3    1
     3     3     4   ar
     4     4     5   ar
     5     5    13    1
     6    13    14   ar
     7    14    15   ar
     8    15    16   ar
     9    16    19    1
    10    19    20    1
    11    20    21    1
    12    20    22    1
    13    20    23    1
    14    16    17   ar
    15    17    18   ar
    16     5     6   ar
    17     6     7   ar
    18     7     8   ar
    19     8     9    1
    20     9    10    1
    21    10    11    1
    22    11    12    1
    23    12    24    1
    24    24    25    1
    25    25    26   ar
    26    26    27   ar
    27    27    28   ar
    28    28    29   ar
    29    29    30   ar
    30    12     2   am
    31    30    25   ar
    32     8     3   ar
    33    18    13   ar
@<TRIPOS>MOLECULE
*****
 30 33 0 0 0
SMALL
GASTEIGER

@<TRIPOS>ATOM
      1 O         143.0548  141.8683  161.7784 O.2     1  UNL1       -0.2698
      2 C         141.9601  142.4093  160.9073 C.2     1  UNL1        0.2524
      3 C         140.5858  142.4007  161.5083 C.ar    1  UNL1        0.0875
      4 C         140.5987  141.8347  162.8974 C.ar    1  UNL1        0.0076
      5 C         139.3223  141.7361  163.6789 C.ar    1  UNL1        0.0003
      6 C         138.0329  142.2034  163.0714 C.ar    1  UNL1        0.0031
      7 C         138.0199  142.7694  161.6824 C.ar    1  UNL1        0.0370
      8 C         139.2964  142.8680  160.9008 C.ar    1  UNL1        0.1429
      9 O         139.0629  143.4594  159.5422 O.3     1  UNL1       -0.4735
     10 C         140.0610  143.7295  158.4556 C.3     1  UNL1        0.2268
     11 C         141.5393  143.4749  158.4592 C.3     1  UNL1        0.1414
     12 N         142.3845  142.8873  159.5503 N.am    1  UNL1       -0.2651
     13 C         139.3351  141.1701  165.0681 C.ar    1  UNL1        0.0002
     14 C         140.1768  141.8112  166.1313 C.ar    1  UNL1        0.0031
     15 C         140.1897  141.2453  167.5204 C.ar    1  UNL1        0.0372
     16 C         139.3609  140.0383  167.8462 C.ar    1  UNL1        0.1468
     17 C         138.5192  139.3971  166.7830 C.ar    1  UNL1        0.0372
     18 C         138.5064  139.9631  165.3938 C.ar    1  UNL1        0.0031
     19 O         139.3738  139.4724  169.2353 O.3     1  UNL1       -0.4045
     20 C         139.9998  140.2488  170.3557 C.3     1  UNL1        0.5753
     21 F         140.6257  141.0252  171.4761 F       1  UNL1       -0.1328
     22 F         141.1675  139.3073  170.3558 F       1  UNL1       -0.1328
     23 F         138.8320  141.1903  170.3556 F       1  UNL1       -0.1328
     24 C         143.8474  142.7612  159.2439 C.3     1  UNL1        0.1597
     25 C         144.3034  141.8979  158.1051 C.ar    1  UNL1        0.1592
     26 N         145.5226  142.2772  157.3178 N.ar    1  UNL1       -0.2274
     27 C         145.9785  141.4139  156.1791 C.ar    1  UNL1        0.1019
     28 C         145.2154  140.1712  155.8276 C.ar    1  UNL1        0.0413
     29 C         143.9963  139.7920  156.6149 C.ar    1  UNL1        0.1019
     30 N         143.5402  140.6552  157.7537 N.ar    1  UNL1       -0.2274
@<TRIPOS>BOND
     1     1     2    2
     2     2     3    1
     3     3     4   ar
     4     4     5   ar
     5     5    13    1
     6    13    14   ar
     7    14    15   ar
     8    15    16   ar
     9    16    19    1
    10    19    20    1
    11    20    21    1
    12    20    22    1
    13    20    23    1
    14    16    17   ar
    15    17    18   ar
    16     5     6   ar
    17     6     7   ar
    18     7     8   ar
    19     8     9    1
    20     9    10    1
    21    10    11    1
    22    11    12    1
    23    12    24    1
    24    24    25    1
    25    25    26   ar
    26    26    27   ar
    27    27    28   ar
    28    28    29   ar
    29    29    30   ar
    30    12     2   am
    31    30    25   ar
    32     8     3   ar
    33    18    13   ar
@<TRIPOS>MOLECULE
*****
 30 33 0 0 0
SMALL
GASTEIGER

@<TRIPOS>ATOM
      1 O         141.2941  142.8664  161.7910 O.2     1  UNL1       -0.2698
      2 C         140.7886  141.8998  160.7614 C.2     1  UNL1        0.2524
      3 C         140.0505  140.7078  161.2947 C.ar    1  UNL1        0.0875
      4 C         139.9723  140.7367  162.7924 C.ar    1  UNL1        0.0076
      5 C         139.2731  139.6324  163.5283 C.ar    1  UNL1        0.0003
      6 C         138.6522  138.4992  162.7666 C.ar    1  UNL1        0.0031
      7 C         138.7304  138.4703  161.2689 C.ar    1  UNL1        0.0370
      8 C         139.4295  139.5746  160.5330 C.ar    1  UNL1        0.1429
      9 O         139.3933  139.3536  159.0498 O.3     1  UNL1       -0.4735
     10 C         139.9690  140.2110  157.9620 C.3     1  UNL1        0.2268
     11 C         140.7233  141.5014  158.0888 C.3     1  UNL1        0.1414
     12 N         141.0880  142.2530  159.3346 N.am    1  UNL1       -0.2651
     13 C         139.1949  139.6613  165.0260 C.ar    1  UNL1        0.0002
     14 C         138.1106  138.9053  165.7351 C.ar    1  UNL1        0.0031
     15 C         138.0323  138.9341  167.2327 C.ar    1  UNL1        0.0372
     16 C         139.0384  139.7190  168.0214 C.ar    1  UNL1        0.1468
     17 C         140.1227  140.4750  167.3123 C.ar    1  UNL1        0.0372
     18 C         140.2009  140.4461  165.8146 C.ar    1  UNL1        0.0031
     19 O         138.9601  139.7478  169.5190 O.3     1  UNL1       -0.4045
     20 C         139.9662  140.5326  170.3077 C.3     1  UNL1        0.5753
     21 F         140.9722  141.3174  171.0963 F       1  UNL1       -0.1328
     22 F         140.8534  139.3251  170.3776 F       1  UNL1       -0.1328
     23 F         139.0790  141.7401  170.2378 F       1  UNL1       -0.1328
     24 C         141.8533  143.5261  159.1261 C.3     1  UNL1        0.1597
     25 C         141.4933  144.4406  157.9929 C.ar    1  UNL1        0.1592
     26 N         140.3266  145.3742  158.1242 N.ar    1  UNL1       -0.2274
     27 C         139.9667  146.2886  156.9910 C.ar    1  UNL1        0.1019
     28 C         140.7734  146.2695  155.7265 C.ar    1  UNL1        0.0413
     29 C         141.9401  145.3359  155.5953 C.ar    1  UNL1        0.1019
     30 N         142.3001  144.4214  156.7285 N.ar    1  UNL1       -0.2274
@<TRIPOS>BOND
     1     1     2    2
     2     2     3    1
     3     3     4   ar
     4     4     5   ar
     5     5    13    1
     6    13    14   ar
     7    14    15   ar
     8    15    16   ar
     9    16    19    1
    10    19    20    1
    11    20    21    1
    12    20    22    1
    13    20    23    1
    14    16    17   ar
    15    17    18   ar
    16     5     6   ar
    17     6     7   ar
    18     7     8   ar
    19     8     9    1
    20     9    10    1
    21    10    11    1
    22    11    12    1
    23    12    24    1
    24    24    25    1
    25    25    26   ar
    26    26    27   ar
    27    27    28   ar
    28    28    29   ar
    29    29    30   ar
    30    12     2   am
    31    30    25   ar
    32     8     3   ar
    33    18    13   ar
