@<TRIPOS>MOLECULE
*****
 35 38 0 0 0
SMALL
GASTEIGER

@<TRIPOS>ATOM
      1 C         139.3005  139.8220  165.0146 C.ar    1  UNL1        0.0727
      2 C         138.1191  138.9952  165.4278 C.ar    1  UNL1        0.0062
      3 C         137.8160  138.7948  166.8831 C.ar    1  UNL1        0.0000
      4 C         138.6944  139.4213  167.9253 C.ar    1  UNL1        0.0001
      5 C         139.8758  140.2482  167.5120 C.ar    1  UNL1        0.0280
      6 C         140.1787  140.4484  166.0567 C.ar    1  UNL1        0.1389
      7 O         141.2974  141.2294  165.4331 O.3     1  UNL1       -0.4741
      8 C         142.3894  142.0028  166.1111 C.3     1  UNL1        0.2226
      9 C         142.6323  142.1864  167.5797 C.3     1  UNL1        0.1204
     10 N         141.8433  141.6419  168.7335 N.3     1  UNL1       -0.2627
     11 C         140.6165  140.7793  168.7033 C.3     1  UNL1        0.1024
     12 C         140.2980  139.6180  161.2691 C.ar    1  UNL1        0.2600
     13 N         140.1509  138.9870  162.6220 N.ar    1  UNL1       -0.1869
     14 C         139.6035  140.0223  163.5592 C.ar    1  UNL1        0.2065
     15 N         139.4123  141.2932  162.7857 N.ar    1  UNL1       -0.0555
     16 O         139.8416  141.0433  161.3702 O.2     1  UNL1       -0.3324
     17 C         141.8384  137.5909  157.5586 C.ar    1  UNL1        0.1479
     18 C         142.7878  137.9646  158.6581 C.ar    1  UNL1        0.0377
     19 C         142.2743  138.6402  159.8950 C.ar    1  UNL1        0.0079
     20 C         140.8115  138.9423  160.0323 C.ar    1  UNL1        0.0569
     21 C         139.8621  138.5686  158.9327 C.ar    1  UNL1        0.0181
     22 C         140.3756  137.8930  157.6959 C.ar    1  UNL1        0.1024
     23 C         139.4261  137.5193  156.5963 C.1     1  UNL1        0.1035
     24 N         138.4767  137.1456  155.4967 N.1     1  UNL1       -0.1907
     25 O         142.3519  136.9152  156.3217 O.3     1  UNL1       -0.4785
     26 C         143.3564  134.6555  157.1183 C.3     1  UNL1        0.0472
     27 C         142.3997  135.4177  156.2501 C.3     1  UNL1        0.1662
     28 C         141.4909  134.6824  155.3103 C.3     1  UNL1        0.0472
     29 C         142.3478  142.0084  170.0976 C.3     1  UNL1        0.1169
     30 C         143.5037  142.9537  170.2409 C.3     1  UNL1        0.1555
     31 O         143.4636  144.0356  171.2792 O.3     1  UNL1       -0.3805
     32 H         142.7624  144.6688  171.0594 H       1  UNL1        0.2105
     33 C         141.6965  141.4297  171.3186 C.3     1  UNL1        0.1555
     34 O         140.5978  142.1813  172.0102 O.3     1  UNL1       -0.3805
     35 H         140.9547  142.9998  172.3892 H       1  UNL1        0.2105
@<TRIPOS>BOND
     1    26    27    1
     2    27    28    1
     3    27    25    1
     4    25    17    1
     5    17    18   ar
     6    18    19   ar
     7    19    20   ar
     8    20    12    1
     9    12    13   ar
    10    13    14   ar
    11    14     1    1
    12     1     2   ar
    13     2     3   ar
    14     3     4   ar
    15     4     5   ar
    16     5     6   ar
    17     6     7    1
    18     7     8    1
    19     8     9    1
    20     9    10    1
    21    10    29    1
    22    29    30    1
    23    30    31    1
    24    29    33    1
    25    33    34    1
    26    10    11    1
    27    14    15   ar
    28    15    16   ar
    29    20    21   ar
    30    21    22   ar
    31    22    23    1
    32    23    24    3
    33    22    17   ar
    34    16    12   ar
    35     6     1   ar
    36    11     5    1
    37    31    32    1
    38    34    35    1
@<TRIPOS>MOLECULE
*****
 35 38 0 0 0
SMALL
GASTEIGER

@<TRIPOS>ATOM
      1 C         139.9096  138.7798  164.8759 C.ar    1  UNL1        0.0727
      2 C         138.6341  138.0652  165.2111 C.ar    1  UNL1        0.0062
      3 C         137.9400  138.3402  166.5122 C.ar    1  UNL1        0.0000
      4 C         138.5215  139.3298  167.4779 C.ar    1  UNL1        0.0001
      5 C         139.7971  140.0444  167.1426 C.ar    1  UNL1        0.0280
      6 C         140.4910  139.7693  165.8416 C.ar    1  UNL1        0.1389
      7 O         141.7621  140.3671  165.3150 O.3     1  UNL1       -0.4741
      8 C         142.6529  141.3876  165.9594 C.3     1  UNL1        0.2226
      9 C         142.4927  142.0622  167.2894 C.3     1  UNL1        0.1204
     10 N         141.4022  141.8831  168.3037 N.3     1  UNL1       -0.2627
     11 C         140.2025  140.9851  168.2384 C.3     1  UNL1        0.1024
     12 C         141.6308  138.8095  161.3971 C.ar    1  UNL1        0.2600
     13 N         140.9453  139.5209  162.5258 N.ar    1  UNL1       -0.1869
     14 C         140.6037  138.5048  163.5749 C.ar    1  UNL1        0.2065
     15 N         141.0780  137.1652  163.0946 N.ar    1  UNL1       -0.0555
     16 O         141.7128  137.3536  161.7486 O.2     1  UNL1       -0.3324
     17 C         143.1706  140.7093  157.6196 C.ar    1  UNL1        0.1479
     18 C         143.1882  139.2169  157.7696 C.ar    1  UNL1        0.0377
     19 C         142.6749  138.5837  159.0288 C.ar    1  UNL1        0.0079
     20 C         142.1440  139.4428  160.1379 C.ar    1  UNL1        0.0569
     21 C         142.1265  140.9351  159.9879 C.ar    1  UNL1        0.0181
     22 C         142.6398  141.5684  158.7287 C.ar    1  UNL1        0.1024
     23 C         142.6222  143.0608  158.5786 C.1     1  UNL1        0.1035
     24 N         142.6046  144.5532  158.4286 N.1     1  UNL1       -0.1907
     25 O         143.6839  141.3425  156.3604 O.3     1  UNL1       -0.4785
     26 C         145.8140  140.9239  154.9330 C.3     1  UNL1        0.0472
     27 C         145.1602  141.5061  156.1510 C.3     1  UNL1        0.1662
     28 C         145.9826  142.2520  157.1596 C.3     1  UNL1        0.0472
     29 C         141.5280  142.7116  169.5478 C.3     1  UNL1        0.1169
     30 C         140.3136  143.3607  170.1426 C.3     1  UNL1        0.1555
     31 O         140.2703  144.8495  170.3208 O.3     1  UNL1       -0.3805
     32 H         140.9342  145.1162  170.9758 H       1  UNL1        0.2105
     33 C         142.8683  142.8909  170.1970 C.3     1  UNL1        0.1555
     34 O         143.1232  144.0800  171.0752 O.3     1  UNL1       -0.3805
     35 H         143.0921  144.8891  170.5410 H       1  UNL1        0.2105
@<TRIPOS>BOND
     1    26    27    1
     2    27    28    1
     3    27    25    1
     4    25    17    1
     5    17    18   ar
     6    18    19   ar
     7    19    20   ar
     8    20    12    1
     9    12    13   ar
    10    13    14   ar
    11    14     1    1
    12     1     2   ar
    13     2     3   ar
    14     3     4   ar
    15     4     5   ar
    16     5     6   ar
    17     6     7    1
    18     7     8    1
    19     8     9    1
    20     9    10    1
    21    10    29    1
    22    29    30    1
    23    30    31    1
    24    29    33    1
    25    33    34    1
    26    10    11    1
    27    14    15   ar
    28    15    16   ar
    29    20    21   ar
    30    21    22   ar
    31    22    23    1
    32    23    24    3
    33    22    17   ar
    34    16    12   ar
    35     6     1   ar
    36    11     5    1
    37    31    32    1
    38    34    35    1
@<TRIPOS>MOLECULE
*****
 35 38 0 0 0
SMALL
GASTEIGER

@<TRIPOS>ATOM
      1 C         140.0151  138.8515  164.9531 C.ar    1  UNL1        0.0727
      2 C         138.7283  138.1604  165.2946 C.ar    1  UNL1        0.0062
      3 C         138.0275  138.4740  166.5833 C.ar    1  UNL1        0.0000
      4 C         138.6136  139.4787  167.5305 C.ar    1  UNL1        0.0001
      5 C         139.9005  140.1698  167.1890 C.ar    1  UNL1        0.0280
      6 C         140.6011  139.8562  165.9004 C.ar    1  UNL1        0.1389
      7 O         141.8834  140.4261  165.3702 O.3     1  UNL1       -0.4741
      8 C         142.7817  141.4504  165.9980 C.3     1  UNL1        0.2226
      9 C         142.6195  142.1577  167.3107 C.3     1  UNL1        0.1204
     10 N         141.5190  142.0155  168.3201 N.3     1  UNL1       -0.2627
     11 C         140.3089  141.1307  168.2659 C.3     1  UNL1        0.1024
     12 C         141.2038  138.3136  161.2976 C.ar    1  UNL1        0.2600
     13 N         140.1726  138.7714  162.2860 N.ar    1  UNL1       -0.1869
     14 C         140.7158  138.5379  163.6645 C.ar    1  UNL1        0.2065
     15 N         142.0829  137.9358  163.5282 N.ar    1  UNL1       -0.0555
     16 O         142.3845  137.7971  162.0653 O.2     1  UNL1       -0.3324
     17 C         140.8227  138.4632  156.8163 C.ar    1  UNL1        0.1479
     18 C         139.6455  138.8047  157.6809 C.ar    1  UNL1        0.0377
     19 C         139.7726  138.7549  159.1747 C.ar    1  UNL1        0.0079
     20 C         141.0768  138.3635  159.8039 C.ar    1  UNL1        0.0569
     21 C         142.2540  138.0220  158.9392 C.ar    1  UNL1        0.0181
     22 C         142.1269  138.0718  157.4455 C.ar    1  UNL1        0.1024
     23 C         143.3042  137.7303  156.5808 C.1     1  UNL1        0.1035
     24 N         144.4813  137.3888  155.7161 N.1     1  UNL1       -0.1907
     25 O         140.6956  138.5131  155.3226 O.3     1  UNL1       -0.4785
     26 C         138.5995  137.2904  154.3945 C.3     1  UNL1        0.0472
     27 C         140.0860  137.3594  154.5828 C.3     1  UNL1        0.1662
     28 C         140.9629  136.2746  154.0312 C.3     1  UNL1        0.0472
     29 C         141.6453  142.8710  169.5456 C.3     1  UNL1        0.1169
     30 C         140.5058  143.7510  169.9667 C.3     1  UNL1        0.1555
     31 O         139.6016  143.3235  171.0847 O.3     1  UNL1       -0.3805
     32 H         139.1063  142.5339  170.8160 H       1  UNL1        0.2105
     33 C         142.9112  142.8467  170.3500 C.3     1  UNL1        0.1555
     34 O         143.3524  144.0739  171.0914 O.3     1  UNL1       -0.3805
     35 H         143.5770  144.7719  170.4565 H       1  UNL1        0.2105
@<TRIPOS>BOND
     1    26    27    1
     2    27    28    1
     3    27    25    1
     4    25    17    1
     5    17    18   ar
     6    18    19   ar
     7    19    20   ar
     8    20    12    1
     9    12    13   ar
    10    13    14   ar
    11    14     1    1
    12     1     2   ar
    13     2     3   ar
    14     3     4   ar
    15     4     5   ar
    16     5     6   ar
    17     6     7    1
    18     7     8    1
    19     8     9    1
    20     9    10    1
    21    10    29    1
    22    29    30    1
    23    30    31    1
    24    29    33    1
    25    33    34    1
    26    10    11    1
    27    14    15   ar
    28    15    16   ar
    29    20    21   ar
    30    21    22   ar
    31    22    23    1
    32    23    24    3
    33    22    17   ar
    34    16    12   ar
    35     6     1   ar
    36    11     5    1
    37    31    32    1
    38    34    35    1
@<TRIPOS>MOLECULE
*****
 35 38 0 0 0
SMALL
GASTEIGER

@<TRIPOS>ATOM
      1 C         140.2131  138.8111  164.8168 C.ar    1  UNL1        0.0727
      2 C         138.9056  138.1169  165.0590 C.ar    1  UNL1        0.0062
      3 C         138.1227  138.4058  166.3055 C.ar    1  UNL1        0.0000
      4 C         138.6473  139.3890  167.3096 C.ar    1  UNL1        0.0001
      5 C         139.9548  140.0832  167.0673 C.ar    1  UNL1        0.0280
      6 C         140.7376  139.7942  165.8209 C.ar    1  UNL1        0.1389
      7 O         142.0527  140.3712  165.3876 O.3     1  UNL1       -0.4741
      8 C         142.9097  141.3796  166.0938 C.3     1  UNL1        0.2226
      9 C         142.6633  142.0601  167.4076 C.3     1  UNL1        0.1204
     10 N         141.4990  141.9003  168.3398 N.3     1  UNL1       -0.2627
     11 C         140.2936  141.0205  168.1883 C.3     1  UNL1        0.1024
     12 C         141.6217  138.3080  161.2351 C.ar    1  UNL1        0.2600
     13 N         140.5193  138.7254  162.1628 N.ar    1  UNL1       -0.1869
     14 C         140.9960  138.5221  163.5703 C.ar    1  UNL1        0.2065
     15 N         142.3932  137.9792  163.5128 N.ar    1  UNL1       -0.0555
     16 O         142.7799  137.8469  162.0695 O.2     1  UNL1       -0.3324
     17 C         141.4797  138.4199  156.7388 C.ar    1  UNL1        0.1479
     18 C         142.7043  137.9087  157.4380 C.ar    1  UNL1        0.0377
     19 C         142.7517  137.8714  158.9368 C.ar    1  UNL1        0.0079
     20 C         141.5744  138.3453  159.7364 C.ar    1  UNL1        0.0569
     21 C         140.3498  138.8566  159.0372 C.ar    1  UNL1        0.0181
     22 C         140.3024  138.8939  157.5384 C.ar    1  UNL1        0.1024
     23 C         139.0777  139.4051  156.8392 C.1     1  UNL1        0.1035
     24 N         137.8531  139.9164  156.1400 N.1     1  UNL1       -0.1907
     25 O         141.4324  138.4572  155.2400 O.3     1  UNL1       -0.4785
     26 C         139.6963  136.9006  154.0941 C.3     1  UNL1        0.0472
     27 C         141.1154  137.2105  154.4684 C.3     1  UNL1        0.1662
     28 C         142.2175  136.2738  154.0710 C.3     1  UNL1        0.0472
     29 C         141.5464  142.7300  169.5885 C.3     1  UNL1        0.1169
     30 C         142.8455  142.9198  170.3140 C.3     1  UNL1        0.1555
     31 O         143.0767  144.1596  171.1263 O.3     1  UNL1       -0.3805
     32 H         143.1048  144.9307  170.5385 H       1  UNL1        0.2105
     33 C         140.2947  143.3698  170.1117 C.3     1  UNL1        0.1555
     34 O         140.2285  144.8586  170.2832 O.3     1  UNL1       -0.3805
     35 H         140.8519  145.1325  170.9741 H       1  UNL1        0.2105
@<TRIPOS>BOND
     1    26    27    1
     2    27    28    1
     3    27    25    1
     4    25    17    1
     5    17    18   ar
     6    18    19   ar
     7    19    20   ar
     8    20    12    1
     9    12    13   ar
    10    13    14   ar
    11    14     1    1
    12     1     2   ar
    13     2     3   ar
    14     3     4   ar
    15     4     5   ar
    16     5     6   ar
    17     6     7    1
    18     7     8    1
    19     8     9    1
    20     9    10    1
    21    10    29    1
    22    29    30    1
    23    30    31    1
    24    29    33    1
    25    33    34    1
    26    10    11    1
    27    14    15   ar
    28    15    16   ar
    29    20    21   ar
    30    21    22   ar
    31    22    23    1
    32    23    24    3
    33    22    17   ar
    34    16    12   ar
    35     6     1   ar
    36    11     5    1
    37    31    32    1
    38    34    35    1
@<TRIPOS>MOLECULE
*****
 35 38 0 0 0
SMALL
GASTEIGER

@<TRIPOS>ATOM
      1 C         138.9330  140.3464  163.8828 C.ar    1  UNL1        0.0727
      2 C         138.6137  138.9155  163.5655 C.ar    1  UNL1        0.0062
      3 C         138.8859  137.8438  164.5792 C.ar    1  UNL1        0.0000
      4 C         139.4773  138.2031  165.9101 C.ar    1  UNL1        0.0001
      5 C         139.7966  139.6340  166.2273 C.ar    1  UNL1        0.0280
      6 C         139.5244  140.7055  165.2136 C.ar    1  UNL1        0.1389
      7 O         139.7658  142.1818  165.3255 O.3     1  UNL1       -0.4741
      8 C         140.3390  142.9510  166.4788 C.3     1  UNL1        0.2226
      9 C         140.8123  142.4339  167.8048 C.3     1  UNL1        0.1204
     10 N         140.8294  141.0199  168.3053 N.3     1  UNL1       -0.2627
     11 C         140.3773  139.7738  167.6032 C.3     1  UNL1        0.1024
     12 C         138.8999  142.9223  160.9795 C.ar    1  UNL1        0.2600
     13 N         139.5653  141.8135  161.7398 N.ar    1  UNL1       -0.1869
     14 C         138.6609  141.4181  162.8691 C.ar    1  UNL1        0.2065
     15 N         137.4365  142.2824  162.8070 N.ar    1  UNL1       -0.0555
     16 O         137.5842  143.2121  161.6391 O.2     1  UNL1       -0.3324
     17 C         140.5594  145.0123  157.3563 C.ar    1  UNL1        0.1479
     18 C         140.8528  145.5429  158.7282 C.ar    1  UNL1        0.0377
     19 C         140.2997  144.8463  159.9359 C.ar    1  UNL1        0.0079
     20 C         139.4531  143.6189  159.7718 C.ar    1  UNL1        0.0569
     21 C         139.1596  143.0883  158.3998 C.ar    1  UNL1        0.0181
     22 C         139.7128  143.7849  157.1921 C.ar    1  UNL1        0.1024
     23 C         139.4193  143.2542  155.8200 C.1     1  UNL1        0.1035
     24 N         139.1259  142.7236  154.4481 N.1     1  UNL1       -0.1907
     25 O         141.1125  145.7089  156.1485 O.3     1  UNL1       -0.4785
     26 C         139.0928  147.3410  156.0628 C.3     1  UNL1        0.0472
     27 C         140.2622  146.6848  155.3905 C.3     1  UNL1        0.1662
     28 C         140.5812  147.0045  153.9601 C.3     1  UNL1        0.0472
     29 C         141.3699  140.8265  169.6910 C.3     1  UNL1        0.1169
     30 C         141.0186  141.8010  170.7759 C.3     1  UNL1        0.1555
     31 O         142.0541  142.2089  171.7818 O.3     1  UNL1       -0.3805
     32 H         142.2972  141.4425  172.3244 H       1  UNL1        0.2105
     33 C         142.2618  139.6586  169.9919 C.3     1  UNL1        0.1555
     34 O         143.3190  139.7750  171.0497 O.3     1  UNL1       -0.3805
     35 H         143.9864  140.4211  170.7700 H       1  UNL1        0.2105
@<TRIPOS>BOND
     1    26    27    1
     2    27    28    1
     3    27    25    1
     4    25    17    1
     5    17    18   ar
     6    18    19   ar
     7    19    20   ar
     8    20    12    1
     9    12    13   ar
    10    13    14   ar
    11    14     1    1
    12     1     2   ar
    13     2     3   ar
    14     3     4   ar
    15     4     5   ar
    16     5     6   ar
    17     6     7    1
    18     7     8    1
    19     8     9    1
    20     9    10    1
    21    10    29    1
    22    29    30    1
    23    30    31    1
    24    29    33    1
    25    33    34    1
    26    10    11    1
    27    14    15   ar
    28    15    16   ar
    29    20    21   ar
    30    21    22   ar
    31    22    23    1
    32    23    24    3
    33    22    17   ar
    34    16    12   ar
    35     6     1   ar
    36    11     5    1
    37    31    32    1
    38    34    35    1
@<TRIPOS>MOLECULE
*****
 35 38 0 0 0
SMALL
GASTEIGER

@<TRIPOS>ATOM
      1 C         140.5546  143.7821  160.1802 C.ar    1  UNL1        0.0727
      2 C         140.2402  145.1800  159.7362 C.ar    1  UNL1        0.0062
      3 C         141.0072  145.7980  158.6049 C.ar    1  UNL1        0.0000
      4 C         142.0886  145.0181  157.9176 C.ar    1  UNL1        0.0001
      5 C         142.4030  143.6202  158.3616 C.ar    1  UNL1        0.0280
      6 C         141.6360  143.0023  159.4928 C.ar    1  UNL1        0.1389
      7 O         141.7878  141.6339  160.0883 O.3     1  UNL1       -0.4741
      8 C         142.7441  140.5455  159.6996 C.3     1  UNL1        0.2226
      9 C         143.7847  140.5568  158.6194 C.3     1  UNL1        0.1204
     10 N         144.1262  141.6592  157.6611 N.3     1  UNL1       -0.2627
     11 C         143.5112  143.0225  157.5464 C.3     1  UNL1        0.1024
     12 C         139.2430  142.1404  163.4436 C.ar    1  UNL1        0.2600
     13 N         140.3653  142.6834  162.6095 N.ar    1  UNL1       -0.1869
     14 C         139.7876  143.1640  161.3114 C.ar    1  UNL1        0.2065
     15 N         138.3082  142.9183  161.3431 N.ar    1  UNL1       -0.0555
     16 O         137.9716  142.2856  162.6609 O.2     1  UNL1       -0.3324
     17 C         139.6232  140.3845  167.5693 C.ar    1  UNL1        0.1479
     18 C         140.4725  141.5550  167.1712 C.ar    1  UNL1        0.0377
     19 C         140.3458  142.1404  165.7960 C.ar    1  UNL1        0.0079
     20 C         139.3697  141.5551  164.8188 C.ar    1  UNL1        0.0569
     21 C         138.5204  140.3846  165.2169 C.ar    1  UNL1        0.0181
     22 C         138.6472  139.7993  166.5922 C.ar    1  UNL1        0.1024
     23 C         137.7978  138.6287  166.9903 C.1     1  UNL1        0.1035
     24 N         136.9485  137.4581  167.3884 N.1     1  UNL1       -0.1907
     25 O         139.7500  139.7992  168.9446 O.3     1  UNL1       -0.4785
     26 C         140.9301  141.1053  170.8554 C.3     1  UNL1        0.0472
     27 C         140.9740  140.0742  169.7669 C.3     1  UNL1        0.1662
     28 C         142.2419  139.3182  169.5006 C.3     1  UNL1        0.0472
     29 C         145.2282  141.3584  156.6891 C.3     1  UNL1        0.1169
     30 C         146.5070  142.1410  156.7394 C.3     1  UNL1        0.1555
     31 O         146.6839  143.3457  155.8632 O.3     1  UNL1       -0.3805
     32 H         146.6989  143.0699  154.9334 H       1  UNL1        0.2105
     33 C         145.0517  140.2751  155.6668 C.3     1  UNL1        0.1555
     34 O         145.7655  138.9659  155.8302 O.3     1  UNL1       -0.3805
     35 H         146.7220  139.1073  155.7532 H       1  UNL1        0.2105
@<TRIPOS>BOND
     1    26    27    1
     2    27    28    1
     3    27    25    1
     4    25    17    1
     5    17    18   ar
     6    18    19   ar
     7    19    20   ar
     8    20    12    1
     9    12    13   ar
    10    13    14   ar
    11    14     1    1
    12     1     2   ar
    13     2     3   ar
    14     3     4   ar
    15     4     5   ar
    16     5     6   ar
    17     6     7    1
    18     7     8    1
    19     8     9    1
    20     9    10    1
    21    10    29    1
    22    29    30    1
    23    30    31    1
    24    29    33    1
    25    33    34    1
    26    10    11    1
    27    14    15   ar
    28    15    16   ar
    29    20    21   ar
    30    21    22   ar
    31    22    23    1
    32    23    24    3
    33    22    17   ar
    34    16    12   ar
    35     6     1   ar
    36    11     5    1
    37    31    32    1
    38    34    35    1
@<TRIPOS>MOLECULE
*****
 35 38 0 0 0
SMALL
GASTEIGER

@<TRIPOS>ATOM
      1 C         139.2620  141.9668  163.8973 C.ar    1  UNL1        0.0727
      2 C         138.6953  143.3403  163.6911 C.ar    1  UNL1        0.0062
      3 C         138.8267  144.3754  164.7687 C.ar    1  UNL1        0.0000
      4 C         139.5249  144.0371  166.0525 C.ar    1  UNL1        0.0001
      5 C         140.0916  142.6636  166.2587 C.ar    1  UNL1        0.0280
      6 C         139.9601  141.6286  165.1812 C.ar    1  UNL1        0.1389
      7 O         140.4491  140.2105  165.1818 O.3     1  UNL1       -0.4741
      8 C         141.1903  139.4773  166.2604 C.3     1  UNL1        0.2226
      9 C         141.6255  139.9812  167.6044 C.3     1  UNL1        0.1204
     10 N         141.4271  141.3426  168.2021 N.3     1  UNL1       -0.2627
     11 C         140.7444  142.5364  167.6032 C.3     1  UNL1        0.1024
     12 C         139.6232  139.4950  160.9267 C.ar    1  UNL1        0.2600
     13 N         140.1777  140.5760  161.8064 N.ar    1  UNL1       -0.1869
     14 C         139.1306  140.9317  162.8197 C.ar    1  UNL1        0.2065
     15 N         137.9288  140.0705  162.5664 N.ar    1  UNL1       -0.0555
     16 O         138.2333  139.1825  161.3964 O.2     1  UNL1       -0.3324
     17 C         141.7550  137.5335  157.4832 C.ar    1  UNL1        0.1479
     18 C         142.5089  137.8794  158.7329 C.ar    1  UNL1        0.0377
     19 C         141.7983  138.5332  159.8808 C.ar    1  UNL1        0.0079
     20 C         140.3338  138.8412  159.7788 C.ar    1  UNL1        0.0569
     21 C         139.5799  138.4953  158.5291 C.ar    1  UNL1        0.0181
     22 C         140.2905  137.8415  157.3812 C.ar    1  UNL1        0.1024
     23 C         139.5365  137.4955  156.1314 C.1     1  UNL1        0.1035
     24 N         138.7826  137.1496  154.8816 N.1     1  UNL1       -0.1907
     25 O         142.4656  136.8797  156.3353 O.3     1  UNL1       -0.4785
     26 C         141.6778  134.6644  155.2300 C.3     1  UNL1        0.0472
     27 C         142.5204  135.3837  156.2412 C.3     1  UNL1        0.1662
     28 C         143.4178  134.6069  157.1584 C.3     1  UNL1        0.0472
     29 C         141.9852  141.5357  169.5809 C.3     1  UNL1        0.1169
     30 C         143.0434  142.5708  169.8236 C.3     1  UNL1        0.1555
     31 O         143.0422  143.3599  171.0993 O.3     1  UNL1       -0.3805
     32 H         142.2535  143.9238  171.1299 H       1  UNL1        0.2105
     33 C         141.4850  140.6938  170.7171 C.3     1  UNL1        0.1555
     34 O         142.1931  140.7211  172.0393 O.3     1  UNL1       -0.3805
     35 H         143.0817  140.3457  171.9380 H       1  UNL1        0.2105
@<TRIPOS>BOND
     1    26    27    1
     2    27    28    1
     3    27    25    1
     4    25    17    1
     5    17    18   ar
     6    18    19   ar
     7    19    20   ar
     8    20    12    1
     9    12    13   ar
    10    13    14   ar
    11    14     1    1
    12     1     2   ar
    13     2     3   ar
    14     3     4   ar
    15     4     5   ar
    16     5     6   ar
    17     6     7    1
    18     7     8    1
    19     8     9    1
    20     9    10    1
    21    10    29    1
    22    29    30    1
    23    30    31    1
    24    29    33    1
    25    33    34    1
    26    10    11    1
    27    14    15   ar
    28    15    16   ar
    29    20    21   ar
    30    21    22   ar
    31    22    23    1
    32    23    24    3
    33    22    17   ar
    34    16    12   ar
    35     6     1   ar
    36    11     5    1
    37    31    32    1
    38    34    35    1
@<TRIPOS>MOLECULE
*****
 35 38 0 0 0
SMALL
GASTEIGER

@<TRIPOS>ATOM
      1 C         139.7497  138.6611  165.0405 C.ar    1  UNL1        0.0727
      2 C         138.4274  138.0419  165.3845 C.ar    1  UNL1        0.0062
      3 C         137.7741  138.3505  166.6990 C.ar    1  UNL1        0.0000
      4 C         138.4431  139.2782  167.6696 C.ar    1  UNL1        0.0001
      5 C         139.7653  139.8974  167.3255 C.ar    1  UNL1        0.0280
      6 C         140.4186  139.5888  166.0110 C.ar    1  UNL1        0.1389
      7 O         141.7247  140.0946  165.4741 O.3     1  UNL1       -0.4741
      8 C         142.7002  141.0340  166.1193 C.3     1  UNL1        0.2226
      9 C         142.6103  141.6994  167.4605 C.3     1  UNL1        0.1204
     10 N         141.5229  141.5900  168.4880 N.3     1  UNL1       -0.2627
     11 C         140.2568  140.7880  168.4279 C.3     1  UNL1        0.1024
     12 C         141.1113  138.5004  161.4093 C.ar    1  UNL1        0.2600
     13 N         140.3063  139.1787  162.4779 N.ar    1  UNL1       -0.1869
     14 C         140.4030  138.3525  163.7260 C.ar    1  UNL1        0.2065
     15 N         141.2678  137.1633  163.4289 N.ar    1  UNL1       -0.0555
     16 O         141.7055  137.2548  161.9970 O.2     1  UNL1       -0.3324
     17 C         141.6491  139.9478  157.1825 C.ar    1  UNL1        0.1479
     18 C         140.7507  140.6954  158.1227 C.ar    1  UNL1        0.0377
     19 C         140.5714  140.2130  159.5316 C.ar    1  UNL1        0.0079
     20 C         141.2905  138.9828  160.0004 C.ar    1  UNL1        0.0569
     21 C         142.1889  138.2352  159.0602 C.ar    1  UNL1        0.0181
     22 C         142.3682  138.7177  157.6513 C.ar    1  UNL1        0.1024
     23 C         143.2666  137.9700  156.7111 C.1     1  UNL1        0.1035
     24 N         144.1650  137.2224  155.7709 N.1     1  UNL1       -0.1907
     25 O         141.8284  140.4303  155.7736 O.3     1  UNL1       -0.4785
     26 C         143.8641  141.8814  156.4808 C.3     1  UNL1        0.0472
     27 C         142.8108  141.5236  155.4745 C.3     1  UNL1        0.1662
     28 C         142.7399  142.2592  154.1692 C.3     1  UNL1        0.0472
     29 C         141.7289  142.3881  169.7412 C.3     1  UNL1        0.1169
     30 C         143.1052  142.8507  170.1181 C.3     1  UNL1        0.1555
     31 O         143.2826  143.8697  171.2045 O.3     1  UNL1       -0.3805
     32 H         142.8993  144.7145  170.9212 H       1  UNL1        0.2105
     33 C         140.5587  142.7235  170.6176 C.3     1  UNL1        0.1555
     34 O         140.5508  142.2946  172.0550 O.3     1  UNL1       -0.3805
     35 H         140.5175  141.3264  172.1033 H       1  UNL1        0.2105
@<TRIPOS>BOND
     1    26    27    1
     2    27    28    1
     3    27    25    1
     4    25    17    1
     5    17    18   ar
     6    18    19   ar
     7    19    20   ar
     8    20    12    1
     9    12    13   ar
    10    13    14   ar
    11    14     1    1
    12     1     2   ar
    13     2     3   ar
    14     3     4   ar
    15     4     5   ar
    16     5     6   ar
    17     6     7    1
    18     7     8    1
    19     8     9    1
    20     9    10    1
    21    10    29    1
    22    29    30    1
    23    30    31    1
    24    29    33    1
    25    33    34    1
    26    10    11    1
    27    14    15   ar
    28    15    16   ar
    29    20    21   ar
    30    21    22   ar
    31    22    23    1
    32    23    24    3
    33    22    17   ar
    34    16    12   ar
    35     6     1   ar
    36    11     5    1
    37    31    32    1
    38    34    35    1
@<TRIPOS>MOLECULE
*****
 35 38 0 0 0
SMALL
GASTEIGER

@<TRIPOS>ATOM
      1 C         141.1912  143.8021  163.6375 C.ar    1  UNL1        0.0727
      2 C         139.9890  144.6556  163.3614 C.ar    1  UNL1        0.0062
      3 C         138.9411  144.8398  164.4188 C.ar    1  UNL1        0.0000
      4 C         139.0955  144.1705  165.7524 C.ar    1  UNL1        0.0001
      5 C         140.2979  143.3170  166.0284 C.ar    1  UNL1        0.0280
      6 C         141.3456  143.1329  164.9710 C.ar    1  UNL1        0.1389
      7 O         142.6114  142.3307  165.0382 O.3     1  UNL1       -0.4741
      8 C         143.1418  141.5145  166.1796 C.3     1  UNL1        0.2226
      9 C         142.5376  141.2990  167.5354 C.3     1  UNL1        0.1204
     10 N         141.2537  141.8464  168.0849 N.3     1  UNL1       -0.2627
     11 C         140.2569  142.7445  167.4143 C.3     1  UNL1        0.1024
     12 C         143.4567  142.7682  160.6603 C.ar    1  UNL1        0.2600
     13 N         142.2160  142.5932  161.4851 N.ar    1  UNL1       -0.1869
     14 C         142.2391  143.6180  162.5801 C.ar    1  UNL1        0.2065
     15 N         143.4940  144.4264  162.4322 N.ar    1  UNL1       -0.0555
     16 O         144.2465  143.9011  161.2456 O.2     1  UNL1       -0.3324
     17 C         144.6071  140.3234  157.0617 C.ar    1  UNL1        0.1479
     18 C         143.5514  139.8227  158.0022 C.ar    1  UNL1        0.0377
     19 C         143.1679  140.6376  159.2017 C.ar    1  UNL1        0.0079
     20 C         143.8401  141.9532  159.4608 C.ar    1  UNL1        0.0569
     21 C         144.8959  142.4540  158.5203 C.ar    1  UNL1        0.0181
     22 C         145.2794  141.6391  157.3208 C.ar    1  UNL1        0.1024
     23 C         146.3353  142.1399  156.3802 C.1     1  UNL1        0.1035
     24 N         147.3910  142.6406  155.4397 N.1     1  UNL1       -0.1907
     25 O         144.9906  139.5085  155.8622 O.3     1  UNL1       -0.4785
     26 C         144.1960  137.0590  155.5181 C.3     1  UNL1        0.0472
     27 C         144.0163  138.5288  155.2784 C.3     1  UNL1        0.1662
     28 C         142.8623  139.0188  154.4549 C.3     1  UNL1        0.0472
     29 C         140.9229  141.4422  169.4910 C.3     1  UNL1        0.1169
     30 C         140.9936  142.4520  170.5980 C.3     1  UNL1        0.1555
     31 O         140.5176  142.0910  171.9740 O.3     1  UNL1       -0.3805
     32 H         139.5599  141.9378  171.9550 H       1  UNL1        0.2105
     33 C         140.5213  140.0283  169.7902 C.3     1  UNL1        0.1555
     34 O         139.4645  139.7501  170.8177 O.3     1  UNL1       -0.3805
     35 H         139.7867  140.0160  171.6932 H       1  UNL1        0.2105
@<TRIPOS>BOND
     1    26    27    1
     2    27    28    1
     3    27    25    1
     4    25    17    1
     5    17    18   ar
     6    18    19   ar
     7    19    20   ar
     8    20    12    1
     9    12    13   ar
    10    13    14   ar
    11    14     1    1
    12     1     2   ar
    13     2     3   ar
    14     3     4   ar
    15     4     5   ar
    16     5     6   ar
    17     6     7    1
    18     7     8    1
    19     8     9    1
    20     9    10    1
    21    10    29    1
    22    29    30    1
    23    30    31    1
    24    29    33    1
    25    33    34    1
    26    10    11    1
    27    14    15   ar
    28    15    16   ar
    29    20    21   ar
    30    21    22   ar
    31    22    23    1
    32    23    24    3
    33    22    17   ar
    34    16    12   ar
    35     6     1   ar
    36    11     5    1
    37    31    32    1
    38    34    35    1
