@<TRIPOS>MOLECULE
*****
 30 34 0 0 0
SMALL
GASTEIGER

@<TRIPOS>ATOM
      1 C         141.5538  143.4434  162.8863 C.ar    1  UNL1        0.0885
      2 C         142.8515  143.8212  163.5367 C.ar    1  UNL1        0.0197
      3 C         143.3185  143.0892  164.7598 C.ar    1  UNL1        0.0030
      4 C         142.4877  141.9794  165.3326 C.ar    1  UNL1        0.0174
      5 C         142.9547  141.2474  166.5558 C.ar    1  UNL1       -0.0027
      6 C         142.1239  140.1376  167.1285 C.ar    1  UNL1       -0.0207
      7 C         140.8261  139.7597  166.4781 C.ar    1  UNL1       -0.0027
      8 C         140.3592  140.4917  165.2549 C.ar    1  UNL1        0.0188
      9 C         141.1900  141.6015  164.6822 C.ar    1  UNL1        0.0812
     10 N         140.7230  142.3335  163.4591 N.ar    1  UNL1       -0.2448
     11 C         139.0264  145.5020  162.7307 C.3     1  UNL1        0.0527
     12 C         139.9251  145.1216  161.5916 C.ar    1  UNL1        0.0687
     13 N         139.8199  145.6206  160.1810 N.ar    1  UNL1       -0.2284
     14 C         140.9166  144.9828  159.3806 C.ar    1  UNL1        0.1629
     15 S         141.6995  144.0896  160.2966 S.2     1  UNL1       -0.0504
     16 C         141.0868  144.1754  161.6631 C.ar    1  UNL1        0.0632
     17 N         141.1833  145.2000  157.9206 N.pl3   1  UNL1       -0.2830
     18 C         142.2741  144.4317  157.2350 C.3     1  UNL1        0.1247
     19 C         142.5409  144.6490  155.7751 C.3     1  UNL1        0.1636
     20 O         141.7169  145.6346  155.0006 O.3     1  UNL1       -0.3501
     21 C         140.6262  146.4029  155.6862 C.3     1  UNL1        0.1636
     22 C         140.3594  146.1856  157.1462 C.3     1  UNL1        0.1247
     23 C         142.5909  139.4056  168.3517 C.3     1  UNL1        0.0437
     24 C         142.4738  140.0494  169.7015 C.3     1  UNL1        0.0768
     25 N         141.7278  141.3418  169.8538 N.3     1  UNL1       -0.2737
     26 C         142.3405  142.7076  169.9495 C.3     1  UNL1        0.0721
     27 C         141.2295  143.7052  170.0921 C.3     1  UNL1        0.0187
     28 C         139.9300  142.9559  170.0844 C.3     1  UNL1        0.0174
     29 C         140.2380  141.4953  169.9372 C.3     1  UNL1        0.0576
     30 C         139.2327  140.3834  169.8828 C.3     1  UNL1        0.0173
@<TRIPOS>BOND
     1    11    12    1
     2    12    13   ar
     3    13    14   ar
     4    14    17    1
     5    17    18    1
     6    18    19    1
     7    19    20    1
     8    20    21    1
     9    21    22    1
    10    14    15   ar
    11    15    16   ar
    12    16     1    1
    13     1     2   ar
    14     2     3   ar
    15     3     4   ar
    16     4     5   ar
    17     5     6   ar
    18     6    23    1
    19    23    24    1
    20    24    25    1
    21    25    26    1
    22    26    27    1
    23    27    28    1
    24    28    29    1
    25    29    30    1
    26     6     7   ar
    27     7     8   ar
    28     8     9   ar
    29     9    10   ar
    30    16    12   ar
    31    10     1   ar
    32    22    17    1
    33     9     4   ar
    34    29    25    1
@<TRIPOS>MOLECULE
*****
 30 34 0 0 0
SMALL
GASTEIGER

@<TRIPOS>ATOM
      1 C         139.7488  138.9609  162.4925 C.ar    1  UNL1        0.0885
      2 C         139.1713  137.7505  163.1644 C.ar    1  UNL1        0.0197
      3 C         138.9173  137.7630  164.6427 C.ar    1  UNL1        0.0030
      4 C         139.2408  138.9858  165.4490 C.ar    1  UNL1        0.0174
      5 C         138.9868  138.9982  166.9273 C.ar    1  UNL1       -0.0027
      6 C         139.3103  140.2210  167.7336 C.ar    1  UNL1       -0.0207
      7 C         139.8879  141.4313  167.0616 C.ar    1  UNL1       -0.0027
      8 C         140.1419  141.4189  165.5834 C.ar    1  UNL1        0.0188
      9 C         139.8183  140.1961  164.7771 C.ar    1  UNL1        0.0812
     10 N         140.0723  140.1836  163.2988 N.ar    1  UNL1       -0.2448
     11 C         137.6300  139.8483  160.1745 C.3     1  UNL1        0.0527
     12 C         139.0289  139.3563  159.9487 C.ar    1  UNL1        0.0687
     13 N         139.6996  139.1859  158.6179 N.ar    1  UNL1       -0.2284
     14 C         141.0880  138.6727  158.8608 C.ar    1  UNL1        0.1629
     15 S         141.2754  138.5259  160.3418 S.2     1  UNL1       -0.0504
     16 C         140.0028  138.9484  161.0142 C.ar    1  UNL1        0.0632
     17 N         142.1096  138.3609  157.8076 N.pl3   1  UNL1       -0.2830
     18 C         142.3961  136.9354  157.4393 C.3     1  UNL1        0.1247
     19 C         143.4177  136.6236  156.3862 C.3     1  UNL1        0.1636
     20 O         144.1527  137.7375  155.7013 O.3     1  UNL1       -0.3501
     21 C         143.8662  139.1631  156.0696 C.3     1  UNL1        0.1636
     22 C         142.8446  139.4748  157.1228 C.3     1  UNL1        0.1247
     23 C         139.0563  140.2335  169.2119 C.3     1  UNL1        0.0437
     24 C         140.2025  140.1049  170.1710 C.3     1  UNL1        0.0768
     25 N         141.3817  141.0251  170.0581 N.3     1  UNL1       -0.2737
     26 C         141.5480  142.3362  170.7675 C.3     1  UNL1        0.0721
     27 C         142.8707  142.9172  170.3639 C.3     1  UNL1        0.0187
     28 C         143.5219  141.9650  169.4049 C.3     1  UNL1        0.0174
     29 C         142.6016  140.7957  169.2160 C.3     1  UNL1        0.0576
     30 C         142.8565  139.6059  168.3389 C.3     1  UNL1        0.0173
@<TRIPOS>BOND
     1    11    12    1
     2    12    13   ar
     3    13    14   ar
     4    14    17    1
     5    17    18    1
     6    18    19    1
     7    19    20    1
     8    20    21    1
     9    21    22    1
    10    14    15   ar
    11    15    16   ar
    12    16     1    1
    13     1     2   ar
    14     2     3   ar
    15     3     4   ar
    16     4     5   ar
    17     5     6   ar
    18     6    23    1
    19    23    24    1
    20    24    25    1
    21    25    26    1
    22    26    27    1
    23    27    28    1
    24    28    29    1
    25    29    30    1
    26     6     7   ar
    27     7     8   ar
    28     8     9   ar
    29     9    10   ar
    30    16    12   ar
    31    10     1   ar
    32    22    17    1
    33     9     4   ar
    34    29    25    1
@<TRIPOS>MOLECULE
*****
 30 34 0 0 0
SMALL
GASTEIGER

@<TRIPOS>ATOM
      1 C         141.6971  138.5397  159.4089 C.ar    1  UNL1        0.0885
      2 C         140.2111  138.6272  159.2244 C.ar    1  UNL1        0.0197
      3 C         139.2967  138.4248  160.3961 C.ar    1  UNL1        0.0030
      4 C         139.8683  138.1349  161.7522 C.ar    1  UNL1        0.0174
      5 C         138.9538  137.9325  162.9240 C.ar    1  UNL1       -0.0027
      6 C         139.5255  137.6426  164.2801 C.ar    1  UNL1       -0.0207
      7 C         141.0116  137.5551  164.4646 C.ar    1  UNL1       -0.0027
      8 C         141.9260  137.7575  163.2929 C.ar    1  UNL1        0.0188
      9 C         141.3543  138.0474  161.9367 C.ar    1  UNL1        0.0812
     10 N         142.2687  138.2498  160.7650 N.ar    1  UNL1       -0.2448
     11 C         142.1490  136.4486  156.9445 C.3     1  UNL1        0.0527
     12 C         142.8192  137.7809  157.1045 C.ar    1  UNL1        0.0687
     13 N         143.8149  138.3860  156.1597 N.ar    1  UNL1       -0.2284
     14 C         144.2226  139.7212  156.7085 C.ar    1  UNL1        0.1629
     15 S         143.4788  139.9413  157.9924 S.2     1  UNL1       -0.0504
     16 C         142.6115  138.7421  158.2371 C.ar    1  UNL1        0.0632
     17 N         145.2019  140.6698  156.0832 N.pl3   1  UNL1       -0.2830
     18 C         145.5259  140.5586  154.6228 C.3     1  UNL1        0.1247
     19 C         146.5053  141.5071  153.9975 C.3     1  UNL1        0.1636
     20 O         147.1607  142.5669  154.8326 O.3     1  UNL1       -0.3501
     21 C         146.8367  142.6781  156.2930 C.3     1  UNL1        0.1636
     22 C         145.8573  141.7295  156.9183 C.3     1  UNL1        0.1247
     23 C         138.6111  137.4402  165.4518 C.3     1  UNL1        0.0437
     24 C         138.0859  138.6252  166.2069 C.3     1  UNL1        0.0768
     25 N         138.9464  139.8403  166.3883 N.3     1  UNL1       -0.2737
     26 C         139.9417  140.0596  167.4889 C.3     1  UNL1        0.0721
     27 C         140.5731  141.4043  167.2818 C.3     1  UNL1        0.0187
     28 C         139.9680  142.0162  166.0531 C.3     1  UNL1        0.0174
     29 C         138.9627  141.0496  165.5009 C.3     1  UNL1        0.0576
     30 C         138.1214  141.2560  164.2764 C.3     1  UNL1        0.0173
@<TRIPOS>BOND
     1    11    12    1
     2    12    13   ar
     3    13    14   ar
     4    14    17    1
     5    17    18    1
     6    18    19    1
     7    19    20    1
     8    20    21    1
     9    21    22    1
    10    14    15   ar
    11    15    16   ar
    12    16     1    1
    13     1     2   ar
    14     2     3   ar
    15     3     4   ar
    16     4     5   ar
    17     5     6   ar
    18     6    23    1
    19    23    24    1
    20    24    25    1
    21    25    26    1
    22    26    27    1
    23    27    28    1
    24    28    29    1
    25    29    30    1
    26     6     7   ar
    27     7     8   ar
    28     8     9   ar
    29     9    10   ar
    30    16    12   ar
    31    10     1   ar
    32    22    17    1
    33     9     4   ar
    34    29    25    1
@<TRIPOS>MOLECULE
*****
 30 34 0 0 0
SMALL
GASTEIGER

@<TRIPOS>ATOM
      1 C         142.3927  139.1668  162.2134 C.ar    1  UNL1        0.0885
      2 C         143.3477  138.7020  163.2725 C.ar    1  UNL1        0.0197
      3 C         142.9609  138.7842  164.7194 C.ar    1  UNL1        0.0030
      4 C         141.6192  139.3312  165.1072 C.ar    1  UNL1        0.0174
      5 C         141.2324  139.4134  166.5542 C.ar    1  UNL1       -0.0027
      6 C         139.8906  139.9604  166.9420 C.ar    1  UNL1       -0.0207
      7 C         138.9356  140.4253  165.8827 C.ar    1  UNL1       -0.0027
      8 C         139.3224  140.3431  164.4358 C.ar    1  UNL1        0.0188
      9 C         140.6641  139.7961  164.0480 C.ar    1  UNL1        0.0812
     10 N         141.0509  139.7139  162.6011 N.ar    1  UNL1       -0.2448
     11 C         144.2246  141.3265  160.5917 C.3     1  UNL1        0.0527
     12 C         143.6215  140.0773  160.0210 C.ar    1  UNL1        0.0687
     13 N         143.7545  139.6015  158.6047 N.ar    1  UNL1       -0.2284
     14 C         142.9946  138.3147  158.4747 C.ar    1  UNL1        0.1629
     15 S         142.3921  137.9953  159.8107 S.2     1  UNL1       -0.0504
     16 C         142.7795  139.0846  160.7663 C.ar    1  UNL1        0.0632
     17 N         142.8609  137.4919  157.2277 N.pl3   1  UNL1       -0.2830
     18 C         142.9587  135.9969  157.3015 C.3     1  UNL1        0.1247
     19 C         142.8250  135.1740  156.0545 C.3     1  UNL1        0.1636
     20 O         142.5934  135.8462  154.7337 O.3     1  UNL1       -0.3501
     21 C         142.4956  137.3412  154.6599 C.3     1  UNL1        0.1636
     22 C         142.6293  138.1640  155.9069 C.3     1  UNL1        0.1247
     23 C         139.5038  140.0426  168.3889 C.3     1  UNL1        0.0437
     24 C         140.5518  139.9110  169.4540 C.3     1  UNL1        0.0768
     25 N         141.5364  141.0201  169.6786 N.3     1  UNL1       -0.2737
     26 C         143.0131  140.9533  169.4236 C.3     1  UNL1        0.0721
     27 C         143.6065  142.2826  169.7850 C.3     1  UNL1        0.0187
     28 C         142.4966  143.1710  170.2634 C.3     1  UNL1        0.0174
     29 C         141.2172  142.3907  170.1976 C.3     1  UNL1        0.0576
     30 C         139.8574  142.8930  170.5832 C.3     1  UNL1        0.0173
@<TRIPOS>BOND
     1    11    12    1
     2    12    13   ar
     3    13    14   ar
     4    14    17    1
     5    17    18    1
     6    18    19    1
     7    19    20    1
     8    20    21    1
     9    21    22    1
    10    14    15   ar
    11    15    16   ar
    12    16     1    1
    13     1     2   ar
    14     2     3   ar
    15     3     4   ar
    16     4     5   ar
    17     5     6   ar
    18     6    23    1
    19    23    24    1
    20    24    25    1
    21    25    26    1
    22    26    27    1
    23    27    28    1
    24    28    29    1
    25    29    30    1
    26     6     7   ar
    27     7     8   ar
    28     8     9   ar
    29     9    10   ar
    30    16    12   ar
    31    10     1   ar
    32    22    17    1
    33     9     4   ar
    34    29    25    1
@<TRIPOS>MOLECULE
*****
 30 34 0 0 0
SMALL
GASTEIGER

@<TRIPOS>ATOM
      1 C         142.6593  138.3136  159.8417 C.ar    1  UNL1        0.0885
      2 C         143.8372  139.1574  160.2298 C.ar    1  UNL1        0.0197
      3 C         144.1496  139.3880  161.6787 C.ar    1  UNL1        0.0030
      4 C         143.2842  138.7749  162.7394 C.ar    1  UNL1        0.0174
      5 C         143.5967  139.0056  164.1883 C.ar    1  UNL1       -0.0027
      6 C         142.7312  138.3925  165.2490 C.ar    1  UNL1       -0.0207
      7 C         141.5533  137.5488  164.8608 C.ar    1  UNL1       -0.0027
      8 C         141.2409  137.3181  163.4120 C.ar    1  UNL1        0.0188
      9 C         142.1063  137.9312  162.3513 C.ar    1  UNL1        0.0812
     10 N         141.7939  137.7006  160.9025 N.ar    1  UNL1       -0.2448
     11 C         141.4275  140.5146  157.7709 C.3     1  UNL1        0.0527
     12 C         141.7807  139.0946  157.4411 C.ar    1  UNL1        0.0687
     13 N         141.6296  138.4370  156.1014 N.ar    1  UNL1       -0.2284
     14 C         142.1024  137.0188  156.2252 C.ar    1  UNL1        0.1629
     15 S         142.5457  136.8000  157.6414 S.2     1  UNL1       -0.0504
     16 C         142.3468  138.0830  158.3928 C.ar    1  UNL1        0.0632
     17 N         142.1275  135.9986  155.1259 N.pl3   1  UNL1       -0.2830
     18 C         141.7477  136.3917  153.7290 C.3     1  UNL1        0.1247
     19 C         141.7728  135.3715  152.6297 C.3     1  UNL1        0.1636
     20 O         142.1778  133.9582  152.9273 O.3     1  UNL1       -0.3501
     21 C         142.5576  133.5651  154.3241 C.3     1  UNL1        0.1636
     22 C         142.5325  134.5853  155.4234 C.3     1  UNL1        0.1247
     23 C         143.0437  138.6232  166.6978 C.3     1  UNL1        0.0437
     24 C         142.6880  139.9299  167.3430 C.3     1  UNL1        0.0768
     25 N         141.5402  140.0031  168.3058 N.3     1  UNL1       -0.2737
     26 C         141.6385  139.9419  169.8013 C.3     1  UNL1        0.0721
     27 C         140.2515  140.0513  170.3619 C.3     1  UNL1        0.0187
     28 C         139.2960  140.1801  169.2128 C.3     1  UNL1        0.0174
     29 C         140.0924  140.1503  167.9421 C.3     1  UNL1        0.0576
     30 C         139.5383  140.2501  166.5518 C.3     1  UNL1        0.0173
@<TRIPOS>BOND
     1    11    12    1
     2    12    13   ar
     3    13    14   ar
     4    14    17    1
     5    17    18    1
     6    18    19    1
     7    19    20    1
     8    20    21    1
     9    21    22    1
    10    14    15   ar
    11    15    16   ar
    12    16     1    1
    13     1     2   ar
    14     2     3   ar
    15     3     4   ar
    16     4     5   ar
    17     5     6   ar
    18     6    23    1
    19    23    24    1
    20    24    25    1
    21    25    26    1
    22    26    27    1
    23    27    28    1
    24    28    29    1
    25    29    30    1
    26     6     7   ar
    27     7     8   ar
    28     8     9   ar
    29     9    10   ar
    30    16    12   ar
    31    10     1   ar
    32    22    17    1
    33     9     4   ar
    34    29    25    1
@<TRIPOS>MOLECULE
*****
 30 34 0 0 0
SMALL
GASTEIGER

@<TRIPOS>ATOM
      1 C         141.5275  142.8655  162.5446 C.ar    1  UNL1        0.0885
      2 C         142.0795  143.6247  163.7145 C.ar    1  UNL1        0.0197
      3 C         141.7493  143.1923  165.1124 C.ar    1  UNL1        0.0030
      4 C         140.8671  142.0007  165.3402 C.ar    1  UNL1        0.0174
      5 C         140.5368  141.5684  166.7381 C.ar    1  UNL1       -0.0027
      6 C         139.6546  140.3768  166.9659 C.ar    1  UNL1       -0.0207
      7 C         139.1026  139.6176  165.7958 C.ar    1  UNL1       -0.0027
      8 C         139.4329  140.0500  164.3980 C.ar    1  UNL1        0.0188
      9 C         140.3151  141.2416  164.1702 C.ar    1  UNL1        0.0812
     10 N         140.6453  141.6740  162.7724 N.ar    1  UNL1       -0.2448
     11 C         144.4524  142.6564  161.1124 C.3     1  UNL1        0.0527
     12 C         143.2022  143.2018  160.4884 C.ar    1  UNL1        0.0687
     13 N         143.0768  143.7467  159.0965 N.ar    1  UNL1       -0.2284
     14 C         141.6549  144.1797  158.8945 C.ar    1  UNL1        0.1629
     15 S         140.9015  143.9023  160.1616 S.2     1  UNL1       -0.0504
     16 C         141.8578  143.2979  161.1466 C.ar    1  UNL1        0.0632
     17 N         141.0862  144.7840  157.6450 N.pl3   1  UNL1       -0.2830
     18 C         140.2728  146.0418  157.7231 C.3     1  UNL1        0.1247
     19 C         139.7042  146.6461  156.4735 C.3     1  UNL1        0.1636
     20 O         139.9490  145.9925  155.1458 O.3     1  UNL1       -0.3501
     21 C         140.7624  144.7346  155.0676 C.3     1  UNL1        0.1636
     22 C         141.3311  144.1304  156.3172 C.3     1  UNL1        0.1247
     23 C         139.3244  139.9444  168.3637 C.3     1  UNL1        0.0437
     24 C         139.6177  140.8547  169.5194 C.3     1  UNL1        0.0768
     25 N         141.0123  141.3608  169.7404 N.3     1  UNL1       -0.2737
     26 C         142.2513  140.5202  169.8315 C.3     1  UNL1        0.0721
     27 C         143.4175  141.4363  170.0564 C.3     1  UNL1        0.0187
     28 C         142.8993  142.8432  170.1043 C.3     1  UNL1        0.0174
     29 C         141.4128  142.7965  169.9089 C.3     1  UNL1        0.0576
     30 C         140.4890  143.9781  169.8862 C.3     1  UNL1        0.0173
@<TRIPOS>BOND
     1    11    12    1
     2    12    13   ar
     3    13    14   ar
     4    14    17    1
     5    17    18    1
     6    18    19    1
     7    19    20    1
     8    20    21    1
     9    21    22    1
    10    14    15   ar
    11    15    16   ar
    12    16     1    1
    13     1     2   ar
    14     2     3   ar
    15     3     4   ar
    16     4     5   ar
    17     5     6   ar
    18     6    23    1
    19    23    24    1
    20    24    25    1
    21    25    26    1
    22    26    27    1
    23    27    28    1
    24    28    29    1
    25    29    30    1
    26     6     7   ar
    27     7     8   ar
    28     8     9   ar
    29     9    10   ar
    30    16    12   ar
    31    10     1   ar
    32    22    17    1
    33     9     4   ar
    34    29    25    1
@<TRIPOS>MOLECULE
*****
 30 34 0 0 0
SMALL
GASTEIGER

@<TRIPOS>ATOM
      1 C         140.2772  144.0464  160.0976 C.ar    1  UNL1        0.0885
      2 C         141.6636  144.0166  160.6693 C.ar    1  UNL1        0.0197
      3 C         141.8792  143.5934  162.0921 C.ar    1  UNL1        0.0030
      4 C         140.7083  143.2000  162.9432 C.ar    1  UNL1        0.0174
      5 C         140.9239  142.7768  164.3661 C.ar    1  UNL1       -0.0027
      6 C         139.7531  142.3835  165.2172 C.ar    1  UNL1       -0.0207
      7 C         138.3666  142.4133  164.6454 C.ar    1  UNL1       -0.0027
      8 C         138.1510  142.8365  163.2226 C.ar    1  UNL1        0.0188
      9 C         139.3219  143.2299  162.3715 C.ar    1  UNL1        0.0812
     10 N         139.1063  143.6531  160.9487 N.ar    1  UNL1       -0.2448
     11 C         139.7080  142.0610  157.5710 C.3     1  UNL1        0.0527
     12 C         139.7999  143.5570  157.5134 C.ar    1  UNL1        0.0687
     13 N         139.6464  144.4031  156.2844 N.ar    1  UNL1       -0.2284
     14 C         139.8132  145.8387  156.6861 C.ar    1  UNL1        0.1629
     15 S         140.0698  145.8798  158.1634 S.2     1  UNL1       -0.0504
     16 C         140.0616  144.4696  158.6747 C.ar    1  UNL1        0.0632
     17 N         139.7368  147.0249  155.7712 N.pl3   1  UNL1       -0.2830
     18 C         138.9527  148.2371  156.1786 C.3     1  UNL1        0.1247
     19 C         138.8763  149.4232  155.2637 C.3     1  UNL1        0.1636
     20 O         139.5840  149.3973  153.9413 O.3     1  UNL1       -0.3501
     21 C         140.3680  148.1851  153.5340 C.3     1  UNL1        0.1636
     22 C         140.4444  146.9989  154.4489 C.3     1  UNL1        0.1247
     23 C         139.9686  141.9603  166.6399 C.3     1  UNL1        0.0437
     24 C         140.5205  140.5985  166.9420 C.3     1  UNL1        0.0768
     25 N         140.2163  139.4468  166.0304 N.3     1  UNL1       -0.2737
     26 C         141.1155  138.9115  164.9558 C.3     1  UNL1        0.0721
     27 C         140.4144  137.7621  164.2946 C.3     1  UNL1        0.0187
     28 C         139.0817  137.5870  164.9606 C.3     1  UNL1        0.0174
     29 C         138.9593  138.6283  166.0334 C.3     1  UNL1        0.0576
     30 C         137.7860  138.8176  166.9484 C.3     1  UNL1        0.0173
@<TRIPOS>BOND
     1    11    12    1
     2    12    13   ar
     3    13    14   ar
     4    14    17    1
     5    17    18    1
     6    18    19    1
     7    19    20    1
     8    20    21    1
     9    21    22    1
    10    14    15   ar
    11    15    16   ar
    12    16     1    1
    13     1     2   ar
    14     2     3   ar
    15     3     4   ar
    16     4     5   ar
    17     5     6   ar
    18     6    23    1
    19    23    24    1
    20    24    25    1
    21    25    26    1
    22    26    27    1
    23    27    28    1
    24    28    29    1
    25    29    30    1
    26     6     7   ar
    27     7     8   ar
    28     8     9   ar
    29     9    10   ar
    30    16    12   ar
    31    10     1   ar
    32    22    17    1
    33     9     4   ar
    34    29    25    1
@<TRIPOS>MOLECULE
*****
 30 34 0 0 0
SMALL
GASTEIGER

@<TRIPOS>ATOM
      1 C         142.7825  138.6339  158.6467 C.ar    1  UNL1        0.0885
      2 C         143.1190  140.0364  158.2349 C.ar    1  UNL1        0.0197
      3 C         143.7204  140.9858  159.2283 C.ar    1  UNL1        0.0030
      4 C         143.9852  140.5327  160.6335 C.ar    1  UNL1        0.0174
      5 C         144.5866  141.4822  161.6269 C.ar    1  UNL1       -0.0027
      6 C         144.8515  141.0291  163.0321 C.ar    1  UNL1       -0.0207
      7 C         144.5149  139.6265  163.4439 C.ar    1  UNL1       -0.0027
      8 C         143.9135  138.6771  162.4505 C.ar    1  UNL1        0.0188
      9 C         143.6487  139.1302  161.0453 C.ar    1  UNL1        0.0812
     10 N         143.0473  138.1807  160.0519 N.ar    1  UNL1       -0.2448
     11 C         139.7236  138.7266  157.5133 C.3     1  UNL1        0.0527
     12 C         140.7751  137.7270  157.1323 C.ar    1  UNL1        0.0687
     13 N         140.6051  136.5945  156.1635 N.ar    1  UNL1       -0.2284
     14 C         141.9061  135.8519  156.0857 C.ar    1  UNL1        0.1629
     15 S         142.8801  136.5255  157.0064 S.2     1  UNL1       -0.0504
     16 C         142.1810  137.6843  157.6533 C.ar    1  UNL1        0.0632
     17 N         142.1843  134.6473  155.2363 N.pl3   1  UNL1       -0.2830
     18 C         141.6147  134.5583  153.8515 C.3     1  UNL1        0.1247
     19 C         141.8929  133.3537  153.0021 C.3     1  UNL1        0.1636
     20 O         142.7407  132.2381  153.5375 O.3     1  UNL1       -0.3501
     21 C         143.3103  132.3271  154.9223 C.3     1  UNL1        0.1636
     22 C         143.0321  133.5317  155.7717 C.3     1  UNL1        0.1247
     23 C         145.4529  141.9785  164.0255 C.3     1  UNL1        0.0437
     24 C         144.5684  142.7264  164.9787 C.3     1  UNL1        0.0768
     25 N         143.4081  143.5218  164.4582 N.3     1  UNL1       -0.2737
     26 C         143.4502  144.9526  164.0098 C.3     1  UNL1        0.0721
     27 C         142.0700  145.3411  163.5692 C.3     1  UNL1        0.0187
     28 C         141.1749  144.1504  163.7452 C.3     1  UNL1        0.0174
     29 C         142.0019  143.0260  164.2946 C.3     1  UNL1        0.0576
     30 C         141.5091  141.6478  164.6229 C.3     1  UNL1        0.0173
@<TRIPOS>BOND
     1    11    12    1
     2    12    13   ar
     3    13    14   ar
     4    14    17    1
     5    17    18    1
     6    18    19    1
     7    19    20    1
     8    20    21    1
     9    21    22    1
    10    14    15   ar
    11    15    16   ar
    12    16     1    1
    13     1     2   ar
    14     2     3   ar
    15     3     4   ar
    16     4     5   ar
    17     5     6   ar
    18     6    23    1
    19    23    24    1
    20    24    25    1
    21    25    26    1
    22    26    27    1
    23    27    28    1
    24    28    29    1
    25    29    30    1
    26     6     7   ar
    27     7     8   ar
    28     8     9   ar
    29     9    10   ar
    30    16    12   ar
    31    10     1   ar
    32    22    17    1
    33     9     4   ar
    34    29    25    1
@<TRIPOS>MOLECULE
*****
 30 34 0 0 0
SMALL
GASTEIGER

@<TRIPOS>ATOM
      1 C         141.5661  139.1327  163.5619 C.ar    1  UNL1        0.0885
      2 C         142.9325  138.5435  163.3727 C.ar    1  UNL1        0.0197
      3 C         143.3757  138.1000  162.0101 C.ar    1  UNL1        0.0030
      4 C         142.4526  138.2455  160.8368 C.ar    1  UNL1        0.0174
      5 C         142.8959  137.8019  159.4741 C.ar    1  UNL1       -0.0027
      6 C         141.9728  137.9474  158.3008 C.ar    1  UNL1       -0.0207
      7 C         140.6063  138.5365  158.4902 C.ar    1  UNL1       -0.0027
      8 C         140.1631  138.9801  159.8527 C.ar    1  UNL1        0.0188
      9 C         141.0862  138.8346  161.0260 C.ar    1  UNL1        0.0812
     10 N         140.6429  139.2782  162.3886 N.ar    1  UNL1       -0.2448
     11 C         139.0010  137.9767  165.2155 C.3     1  UNL1        0.0527
     12 C         139.9437  139.0449  165.6846 C.ar    1  UNL1        0.0687
     13 N         139.8730  139.7694  166.9961 N.ar    1  UNL1       -0.2284
     14 C         141.0083  140.7485  167.0467 C.ar    1  UNL1        0.1629
     15 S         141.7806  140.6291  165.7664 S.2     1  UNL1       -0.0504
     16 C         141.1227  139.5763  164.9246 C.ar    1  UNL1        0.0632
     17 N         141.3169  141.6829  168.1788 N.pl3   1  UNL1       -0.2830
     18 C         142.5511  141.4769  169.0061 C.3     1  UNL1        0.1247
     19 C         142.8597  142.4113  170.1382 C.3     1  UNL1        0.1636
     20 O         141.9343  143.5517  170.4430 O.3     1  UNL1       -0.3501
     21 C         140.7001  143.7577  169.6156 C.3     1  UNL1        0.1636
     22 C         140.3914  142.8233  168.4836 C.3     1  UNL1        0.1247
     23 C         142.4160  137.5038  156.9382 C.3     1  UNL1        0.0437
     24 C         141.8393  136.2598  156.3299 C.3     1  UNL1        0.0768
     25 N         142.6408  134.9921  156.3130 N.3     1  UNL1       -0.2737
     26 C         143.4585  134.4507  157.4480 C.3     1  UNL1        0.0721
     27 C         144.0884  133.1672  156.9946 C.3     1  UNL1        0.0187
     28 C         143.6601  132.9153  155.5793 C.3     1  UNL1        0.0174
     29 C         142.7654  134.0432  155.1580 C.3     1  UNL1        0.0576
     30 C         142.1104  134.1953  153.8172 C.3     1  UNL1        0.0173
@<TRIPOS>BOND
     1    11    12    1
     2    12    13   ar
     3    13    14   ar
     4    14    17    1
     5    17    18    1
     6    18    19    1
     7    19    20    1
     8    20    21    1
     9    21    22    1
    10    14    15   ar
    11    15    16   ar
    12    16     1    1
    13     1     2   ar
    14     2     3   ar
    15     3     4   ar
    16     4     5   ar
    17     5     6   ar
    18     6    23    1
    19    23    24    1
    20    24    25    1
    21    25    26    1
    22    26    27    1
    23    27    28    1
    24    28    29    1
    25    29    30    1
    26     6     7   ar
    27     7     8   ar
    28     8     9   ar
    29     9    10   ar
    30    16    12   ar
    31    10     1   ar
    32    22    17    1
    33     9     4   ar
    34    29    25    1
