@<TRIPOS>MOLECULE
*****
 47 50 0 0 0
SMALL
GASTEIGER

@<TRIPOS>ATOM
      1 C         144.7042  142.8179  164.0800 C.3     1  UNL1        0.0911
      2 C         140.3624  144.2380  161.4320 C.2     1  UNL1        0.2490
      3 O         139.5276  145.4690  161.2383 O.2     1  UNL1       -0.2699
      4 N         141.5732  144.2844  162.3161 N.am    1  UNL1       -0.2760
      5 C         142.0707  145.4834  163.0677 C.3     1  UNL1        0.0938
      6 C         143.3042  145.0800  163.8200 C.3     1  UNL1        0.0249
      7 C         143.5690  143.6316  163.5333 C.3     1  UNL1        0.0412
      8 C         142.4993  143.1399  162.6038 C.3     1  UNL1        0.0954
      9 C         139.2341  140.4055  159.3610 C.ar    1  UNL1        0.1306
     10 C         139.4588  140.4186  160.8440 C.ar    1  UNL1        0.0110
     11 C         139.8349  141.6961  161.5343 C.ar    1  UNL1        0.0032
     12 C         139.9863  142.9605  160.7417 C.ar    1  UNL1        0.0532
     13 C         139.7616  142.9474  159.2587 C.ar    1  UNL1        0.0032
     14 C         139.3855  141.6699  158.5684 C.ar    1  UNL1        0.0110
     15 C         139.3075  139.1541  161.6367 C.3     1  UNL1        0.0218
     16 C         140.7862  138.9199  161.5456 C.3     1  UNL1        0.0045
     17 C         137.8287  139.3883  161.7279 C.3     1  UNL1        0.0045
     18 C         139.1560  137.8898  162.4294 C.3     1  UNL1        0.0045
     19 C         139.1608  141.6568  157.0853 C.3     1  UNL1        0.0218
     20 C         137.6795  141.7327  157.3091 C.3     1  UNL1        0.0045
     21 C         140.6420  141.5809  156.8615 C.3     1  UNL1        0.0045
     22 C         138.9360  141.6438  155.6023 C.3     1  UNL1        0.0045
     23 C         139.9206  138.2689  158.0520 C.3     1  UNL1        0.2524
     24 O         138.8580  139.1280  158.6707 O.3     1  UNL1       -0.4721
     25 N         144.4288  141.5153  164.7710 N.am    1  UNL1       -0.3043
     26 C         144.3747  140.2428  163.9787 C.2     1  UNL1        0.2225
     27 O         144.5960  140.2727  162.4954 O.2     1  UNL1       -0.2751
     28 H         144.2835  141.4956  165.7445 H       1  UNL1        0.1494
     29 C         144.0992  138.9402  164.6697 C.3     1  UNL1        0.0850
     30 C         142.9684  138.8356  165.6497 C.3     1  UNL1        0.0096
     31 C         141.5962  139.3031  165.2642 C.3     1  UNL1        0.0012
     32 C         140.6398  139.7728  166.3201 C.3     1  UNL1        0.0087
     33 C         140.5008  141.2384  166.6076 C.3     1  UNL1        0.0446
     34 C         139.6369  142.0960  165.7311 C.ar    1  UNL1       -0.0183
     35 C         139.8941  143.5708  165.6370 C.ar    1  UNL1       -0.0017
     36 C         139.0303  144.4284  164.7605 C.ar    1  UNL1        0.0293
     37 C         137.9093  143.8113  163.9780 C.ar    1  UNL1        0.1401
     38 F         137.0455  144.6688  163.1015 F       1  UNL1       -0.2042
     39 C         137.6521  142.3364  164.0720 C.ar    1  UNL1        0.0293
     40 C         138.5159  141.4789  164.9485 C.ar    1  UNL1       -0.0017
     41 C         141.2255  141.8464  167.7717 C.ar    1  UNL1       -0.0183
     42 C         140.4529  142.5150  168.8700 C.ar    1  UNL1       -0.0017
     43 C         141.1776  143.1230  170.0340 C.ar    1  UNL1        0.0293
     44 C         142.6749  143.0624  170.0999 C.ar    1  UNL1        0.1401
     45 F         143.3996  143.6705  171.2640 F       1  UNL1       -0.2042
     46 C         143.4476  142.3939  169.0016 C.ar    1  UNL1        0.0293
     47 C         142.7228  141.7859  167.8376 C.ar    1  UNL1       -0.0017
@<TRIPOS>BOND
     1    23    24    1
     2    24     9    1
     3     9    10   ar
     4    10    15    1
     5    15    16    1
     6    15    17    1
     7    15    18    1
     8    10    11   ar
     9    11    12   ar
    10    12     2    1
    11     2     3    2
    12     2     4   am
    13     4     5    1
    14     5     6    1
    15     6     7    1
    16     7     1    1
    17     1    25    1
    18    25    26   am
    19    26    27    2
    20    26    29    1
    21    29    30    1
    22    30    31    1
    23    31    32    1
    24    32    33    1
    25    33    34    1
    26    34    35   ar
    27    35    36   ar
    28    36    37   ar
    29    37    38    1
    30    37    39   ar
    31    39    40   ar
    32    33    41    1
    33    41    42   ar
    34    42    43   ar
    35    43    44   ar
    36    44    45    1
    37    44    46   ar
    38    46    47   ar
    39     7     8    1
    40    12    13   ar
    41    13    14   ar
    42    14    19    1
    43    19    20    1
    44    19    21    1
    45    19    22    1
    46    14     9   ar
    47     8     4    1
    48    40    34   ar
    49    47    41   ar
    50    25    28    1
@<TRIPOS>MOLECULE
*****
 47 50 0 0 0
SMALL
GASTEIGER

@<TRIPOS>ATOM
      1 C         142.5443  144.3591  160.9883 C.3     1  UNL1        0.0911
      2 C         138.8204  144.0938  164.7222 C.2     1  UNL1        0.2490
      3 O         137.5099  144.7516  165.0382 O.2     1  UNL1       -0.2699
      4 N         139.5843  144.4951  163.4953 N.am    1  UNL1       -0.2760
      5 C         139.1660  145.5330  162.4964 C.3     1  UNL1        0.0938
      6 C         140.2240  145.6084  161.4356 C.3     1  UNL1        0.0249
      7 C         141.2961  144.6170  161.7790 C.3     1  UNL1        0.0412
      8 C         140.9008  143.9290  163.0519 C.3     1  UNL1        0.0954
      9 C         140.4598  140.9164  167.4546 C.ar    1  UNL1        0.1306
     10 C         139.6568  140.5274  166.2489 C.ar    1  UNL1        0.0110
     11 C         139.1103  141.5865  165.3381 C.ar    1  UNL1        0.0032
     12 C         139.3668  143.0346  165.6330 C.ar    1  UNL1        0.0532
     13 C         140.1698  143.4236  166.8387 C.ar    1  UNL1        0.0032
     14 C         140.7163  142.3645  167.7495 C.ar    1  UNL1        0.0110
     15 C         139.4003  139.0791  165.9539 C.3     1  UNL1        0.0218
     16 C         140.8218  138.9191  165.5028 C.3     1  UNL1        0.0045
     17 C         137.9787  139.2391  166.4049 C.3     1  UNL1        0.0045
     18 C         139.1437  137.6310  165.6589 C.3     1  UNL1        0.0045
     19 C         141.5193  142.7536  168.9553 C.3     1  UNL1        0.0218
     20 C         140.2878  143.3284  169.5900 C.3     1  UNL1        0.0045
     21 C         142.7509  142.1787  168.3207 C.3     1  UNL1        0.0045
     22 C         142.3223  143.1426  170.1611 C.3     1  UNL1        0.0045
     23 C         140.4316  139.6802  169.7395 C.3     1  UNL1        0.2524
     24 O         141.0063  139.8572  168.3654 O.3     1  UNL1       -0.4721
     25 N         142.7934  143.0012  160.4017 N.am    1  UNL1       -0.3043
     26 C         142.1197  142.6017  159.1224 C.2     1  UNL1        0.2225
     27 O         141.1970  143.5602  158.4296 O.2     1  UNL1       -0.2751
     28 H         143.3990  142.3721  160.8564 H       1  UNL1        0.1494
     29 C         142.3688  141.2438  158.5359 C.3     1  UNL1        0.0850
     30 C         143.6735  140.5470  158.7851 C.3     1  UNL1        0.0096
     31 C         143.6967  139.2372  159.5158 C.3     1  UNL1        0.0012
     32 C         144.0255  139.2004  160.9789 C.3     1  UNL1        0.0087
     33 C         143.1014  139.8411  161.9716 C.3     1  UNL1        0.0446
     34 C         141.6418  139.4956  161.9693 C.ar    1  UNL1       -0.0183
     35 C         141.2094  138.0655  162.1030 C.ar    1  UNL1       -0.0017
     36 C         139.7497  137.7199  162.1007 C.ar    1  UNL1        0.0293
     37 C         138.7224  138.8044  161.9646 C.ar    1  UNL1        0.1401
     38 F         137.2629  138.4588  161.9622 F       1  UNL1       -0.2042
     39 C         139.1549  140.2345  161.8308 C.ar    1  UNL1        0.0293
     40 C         140.6145  140.5801  161.8332 C.ar    1  UNL1       -0.0017
     41 C         143.6370  140.8275  162.9668 C.ar    1  UNL1       -0.0183
     42 C         145.0243  141.3755  162.8076 C.ar    1  UNL1       -0.0017
     43 C         145.5598  142.3618  163.8026 C.ar    1  UNL1        0.0293
     44 C         144.7082  142.8002  164.9570 C.ar    1  UNL1        0.1401
     45 F         145.2438  143.7866  165.9520 F       1  UNL1       -0.2042
     46 C         143.3209  142.2523  165.1162 C.ar    1  UNL1        0.0293
     47 C         142.7854  141.2660  164.1211 C.ar    1  UNL1       -0.0017
@<TRIPOS>BOND
     1    23    24    1
     2    24     9    1
     3     9    10   ar
     4    10    15    1
     5    15    16    1
     6    15    17    1
     7    15    18    1
     8    10    11   ar
     9    11    12   ar
    10    12     2    1
    11     2     3    2
    12     2     4   am
    13     4     5    1
    14     5     6    1
    15     6     7    1
    16     7     1    1
    17     1    25    1
    18    25    26   am
    19    26    27    2
    20    26    29    1
    21    29    30    1
    22    30    31    1
    23    31    32    1
    24    32    33    1
    25    33    34    1
    26    34    35   ar
    27    35    36   ar
    28    36    37   ar
    29    37    38    1
    30    37    39   ar
    31    39    40   ar
    32    33    41    1
    33    41    42   ar
    34    42    43   ar
    35    43    44   ar
    36    44    45    1
    37    44    46   ar
    38    46    47   ar
    39     7     8    1
    40    12    13   ar
    41    13    14   ar
    42    14    19    1
    43    19    20    1
    44    19    21    1
    45    19    22    1
    46    14     9   ar
    47     8     4    1
    48    40    34   ar
    49    47    41   ar
    50    25    28    1
@<TRIPOS>MOLECULE
*****
 47 50 0 0 0
SMALL
GASTEIGER

@<TRIPOS>ATOM
      1 C         142.5760  144.2998  160.9814 C.3     1  UNL1        0.0911
      2 C         138.8262  144.0654  164.6914 C.2     1  UNL1        0.2490
      3 O         137.5151  144.7279  164.9945 O.2     1  UNL1       -0.2699
      4 N         139.5994  144.4576  163.4674 N.am    1  UNL1       -0.2760
      5 C         139.1902  145.4903  162.4593 C.3     1  UNL1        0.0938
      6 C         140.2555  145.5569  161.4053 C.3     1  UNL1        0.0249
      7 C         141.3231  144.5653  161.7620 C.3     1  UNL1        0.0412
      8 C         140.9176  143.8859  163.0363 C.3     1  UNL1        0.0954
      9 C         140.4400  140.9010  167.4541 C.ar    1  UNL1        0.1306
     10 C         140.7111  142.3496  167.7333 C.ar    1  UNL1        0.0110
     11 C         140.1731  143.4044  166.8124 C.ar    1  UNL1        0.0032
     12 C         139.3641  143.0106  165.6123 C.ar    1  UNL1        0.0532
     13 C         139.0931  141.5620  165.3331 C.ar    1  UNL1        0.0032
     14 C         139.6310  140.5072  166.2540 C.ar    1  UNL1        0.0110
     15 C         141.5201  142.7435  168.9335 C.3     1  UNL1        0.0218
     16 C         142.7477  142.1627  168.2967 C.3     1  UNL1        0.0045
     17 C         140.2925  143.3243  169.5704 C.3     1  UNL1        0.0045
     18 C         142.3291  143.1374  170.1337 C.3     1  UNL1        0.0045
     19 C         139.3599  139.0585  165.9747 C.3     1  UNL1        0.0218
     20 C         140.7715  138.8864  165.4976 C.3     1  UNL1        0.0045
     21 C         137.9483  139.2307  166.4518 C.3     1  UNL1        0.0045
     22 C         139.0889  137.6099  165.6954 C.3     1  UNL1        0.0045
     23 C         140.4186  139.7031  169.7594 C.3     1  UNL1        0.2524
     24 O         140.9779  139.8462  168.3750 O.3     1  UNL1       -0.4721
     25 N         142.8126  142.9460  160.3804 N.am    1  UNL1       -0.3043
     26 C         142.1675  142.5812  159.0762 C.2     1  UNL1        0.2225
     27 O         141.2858  143.5703  158.3730 O.2     1  UNL1       -0.2751
     28 H         143.3912  142.2968  160.8419 H       1  UNL1        0.1494
     29 C         142.4040  141.2274  158.4753 C.3     1  UNL1        0.0850
     30 C         143.6931  140.5059  158.7359 C.3     1  UNL1        0.0096
     31 C         143.6874  139.2079  159.4875 C.3     1  UNL1        0.0012
     32 C         144.0163  139.1871  160.9509 C.3     1  UNL1        0.0087
     33 C         143.0897  139.8343  161.9371 C.3     1  UNL1        0.0446
     34 C         141.6298  139.4900  161.9321 C.ar    1  UNL1       -0.0183
     35 C         141.1960  138.0598  162.0608 C.ar    1  UNL1       -0.0017
     36 C         139.7361  137.7155  162.0558 C.ar    1  UNL1        0.0293
     37 C         138.7098  138.8013  161.9221 C.ar    1  UNL1        0.1401
     38 F         137.2500  138.4570  161.9171 F       1  UNL1       -0.2042
     39 C         139.1437  140.2315  161.7934 C.ar    1  UNL1        0.0293
     40 C         140.6036  140.5758  161.7984 C.ar    1  UNL1       -0.0017
     41 C         143.6231  140.8258  162.9283 C.ar    1  UNL1       -0.0183
     42 C         144.9905  141.4131  162.7401 C.ar    1  UNL1       -0.0017
     43 C         145.5238  142.4045  163.7313 C.ar    1  UNL1        0.0293
     44 C         144.6898  142.8087  164.9107 C.ar    1  UNL1        0.1401
     45 F         145.2232  143.8001  165.9019 F       1  UNL1       -0.2042
     46 C         143.3224  142.2214  165.0990 C.ar    1  UNL1        0.0293
     47 C         142.7891  141.2299  164.1078 C.ar    1  UNL1       -0.0017
@<TRIPOS>BOND
     1    23    24    1
     2    24     9    1
     3     9    10   ar
     4    10    15    1
     5    15    16    1
     6    15    17    1
     7    15    18    1
     8    10    11   ar
     9    11    12   ar
    10    12     2    1
    11     2     3    2
    12     2     4   am
    13     4     5    1
    14     5     6    1
    15     6     7    1
    16     7     1    1
    17     1    25    1
    18    25    26   am
    19    26    27    2
    20    26    29    1
    21    29    30    1
    22    30    31    1
    23    31    32    1
    24    32    33    1
    25    33    34    1
    26    34    35   ar
    27    35    36   ar
    28    36    37   ar
    29    37    38    1
    30    37    39   ar
    31    39    40   ar
    32    33    41    1
    33    41    42   ar
    34    42    43   ar
    35    43    44   ar
    36    44    45    1
    37    44    46   ar
    38    46    47   ar
    39     7     8    1
    40    12    13   ar
    41    13    14   ar
    42    14    19    1
    43    19    20    1
    44    19    21    1
    45    19    22    1
    46    14     9   ar
    47     8     4    1
    48    40    34   ar
    49    47    41   ar
    50    25    28    1
@<TRIPOS>MOLECULE
*****
 47 50 0 0 0
SMALL
GASTEIGER

@<TRIPOS>ATOM
      1 C         142.5843  144.3547  160.9920 C.3     1  UNL1        0.0911
      2 C         138.8066  143.9718  164.6612 C.2     1  UNL1        0.2490
      3 O         137.4862  144.6118  164.9727 O.2     1  UNL1       -0.2699
      4 N         139.5857  144.4081  163.4560 N.am    1  UNL1       -0.2760
      5 C         139.1742  145.4662  162.4756 C.3     1  UNL1        0.0938
      6 C         140.2474  145.5750  161.4332 C.3     1  UNL1        0.0249
      7 C         141.3222  144.5841  161.7694 C.3     1  UNL1        0.0412
      8 C         140.9133  143.8630  163.0195 C.3     1  UNL1        0.0954
      9 C         140.4303  140.7431  167.3425 C.ar    1  UNL1        0.1306
     10 C         139.6210  140.3776  166.1336 C.ar    1  UNL1        0.0110
     11 C         139.0798  141.4538  165.2399 C.ar    1  UNL1        0.0032
     12 C         139.3478  142.8956  165.5550 C.ar    1  UNL1        0.0532
     13 C         140.1571  143.2612  166.7638 C.ar    1  UNL1        0.0032
     14 C         140.6984  142.1849  167.6576 C.ar    1  UNL1        0.0110
     15 C         139.3529  138.9357  165.8185 C.3     1  UNL1        0.0218
     16 C         140.6975  138.8291  165.1623 C.3     1  UNL1        0.0045
     17 C         138.0083  139.0424  166.4746 C.3     1  UNL1        0.0045
     18 C         139.0848  137.4940  165.5033 C.3     1  UNL1        0.0045
     19 C         141.5077  142.5506  168.8665 C.3     1  UNL1        0.0218
     20 C         140.2547  142.6030  169.6894 C.3     1  UNL1        0.0045
     21 C         142.7607  142.4981  168.0435 C.3     1  UNL1        0.0045
     22 C         142.3169  142.9162  170.0753 C.3     1  UNL1        0.0045
     23 C         142.4018  139.2337  168.1071 C.3     1  UNL1        0.2524
     24 O         140.9715  139.6669  168.2362 O.3     1  UNL1       -0.4721
     25 N         142.8292  143.0293  160.3337 N.am    1  UNL1       -0.3043
     26 C         142.1888  142.7180  159.0134 C.2     1  UNL1        0.2225
     27 O         141.3035  143.7320  158.3516 O.2     1  UNL1       -0.2751
     28 H         143.4102  142.3638  160.7681 H       1  UNL1        0.1494
     29 C         142.4337  141.3926  158.3551 C.3     1  UNL1        0.0850
     30 C         143.6945  140.6332  158.6442 C.3     1  UNL1        0.0096
     31 C         143.6213  139.2411  159.1980 C.3     1  UNL1        0.0012
     32 C         143.8302  139.0054  160.6646 C.3     1  UNL1        0.0087
     33 C         142.9550  139.6968  161.6675 C.3     1  UNL1        0.0446
     34 C         143.5574  140.6456  162.6609 C.ar    1  UNL1       -0.0183
     35 C         142.7863  141.0382  163.8861 C.ar    1  UNL1       -0.0017
     36 C         143.3888  141.9870  164.8795 C.ar    1  UNL1        0.0293
     37 C         144.7624  142.5433  164.6477 C.ar    1  UNL1        0.1401
     38 F         145.3648  143.4920  165.6410 F       1  UNL1       -0.2042
     39 C         145.5335  142.1507  163.4224 C.ar    1  UNL1        0.0293
     40 C         144.9310  141.2019  162.4291 C.ar    1  UNL1       -0.0017
     41 C         141.4772  139.4395  161.6770 C.ar    1  UNL1       -0.0183
     42 C         140.9611  138.0360  161.7950 C.ar    1  UNL1       -0.0017
     43 C         139.4834  137.7787  161.8045 C.ar    1  UNL1        0.0293
     44 C         138.5218  138.9247  161.6961 C.ar    1  UNL1        0.1401
     45 F         137.0441  138.6673  161.7057 F       1  UNL1       -0.2042
     46 C         139.0379  140.3282  161.5782 C.ar    1  UNL1        0.0293
     47 C         140.5156  140.5855  161.5686 C.ar    1  UNL1       -0.0017
@<TRIPOS>BOND
     1    23    24    1
     2    24     9    1
     3     9    10   ar
     4    10    15    1
     5    15    16    1
     6    15    17    1
     7    15    18    1
     8    10    11   ar
     9    11    12   ar
    10    12     2    1
    11     2     3    2
    12     2     4   am
    13     4     5    1
    14     5     6    1
    15     6     7    1
    16     7     1    1
    17     1    25    1
    18    25    26   am
    19    26    27    2
    20    26    29    1
    21    29    30    1
    22    30    31    1
    23    31    32    1
    24    32    33    1
    25    33    34    1
    26    34    35   ar
    27    35    36   ar
    28    36    37   ar
    29    37    38    1
    30    37    39   ar
    31    39    40   ar
    32    33    41    1
    33    41    42   ar
    34    42    43   ar
    35    43    44   ar
    36    44    45    1
    37    44    46   ar
    38    46    47   ar
    39     7     8    1
    40    12    13   ar
    41    13    14   ar
    42    14    19    1
    43    19    20    1
    44    19    21    1
    45    19    22    1
    46    14     9   ar
    47     8     4    1
    48    40    34   ar
    49    47    41   ar
    50    25    28    1
@<TRIPOS>MOLECULE
*****
 47 50 0 0 0
SMALL
GASTEIGER

@<TRIPOS>ATOM
      1 C         139.0174  139.7751  159.7846 C.3     1  UNL1        0.0911
      2 C         138.5398  142.9881  163.9474 C.2     1  UNL1        0.2490
      3 O         138.1107  144.3987  164.2233 O.2     1  UNL1       -0.2699
      4 N         138.5172  142.4582  162.5443 N.am    1  UNL1       -0.2760
      5 C         138.0925  143.2169  161.3220 C.3     1  UNL1        0.0938
      6 C         138.2282  142.3041  160.1393 C.3     1  UNL1        0.0249
      7 C         138.7367  140.9813  160.6308 C.3     1  UNL1        0.0412
      8 C         138.9154  141.0765  162.1171 C.3     1  UNL1        0.0954
      9 C         139.8950  140.3462  167.3288 C.ar    1  UNL1        0.1306
     10 C         140.4794  141.7183  167.1685 C.ar    1  UNL1        0.0110
     11 C         140.0277  142.5990  166.0413 C.ar    1  UNL1        0.0032
     12 C         138.9915  142.1075  165.0745 C.ar    1  UNL1        0.0532
     13 C         138.4071  140.7354  165.2348 C.ar    1  UNL1        0.0032
     14 C         138.8588  139.8548  166.3619 C.ar    1  UNL1        0.0110
     15 C         141.5156  142.2099  168.1353 C.3     1  UNL1        0.0218
     16 C         142.5711  141.4454  167.3928 C.3     1  UNL1        0.0045
     17 C         140.4601  142.9744  168.8778 C.3     1  UNL1        0.0045
     18 C         142.5517  142.7014  169.1022 C.3     1  UNL1        0.0045
     19 C         138.2744  138.4826  166.5222 C.3     1  UNL1        0.0218
     20 C         137.5211  138.9450  167.7341 C.3     1  UNL1        0.0045
     21 C         139.0276  138.0202  165.3103 C.3     1  UNL1        0.0045
     22 C         137.6899  137.1105  166.6825 C.3     1  UNL1        0.0045
     23 C         140.0608  139.8579  169.8751 C.3     1  UNL1        0.2524
     24 O         140.3467  139.4656  168.4559 O.3     1  UNL1       -0.4721
     25 N         140.4185  139.2533  159.6636 N.am    1  UNL1       -0.3043
     26 C         140.9236  138.2282  160.6352 C.2     1  UNL1        0.2225
     27 O         140.0277  137.7249  161.7279 O.2     1  UNL1       -0.2751
     28 H         141.0065  139.5836  158.9464 H       1  UNL1        0.1494
     29 C         142.3247  137.7065  160.5142 C.3     1  UNL1        0.0850
     30 C         143.3604  138.5025  159.7768 C.3     1  UNL1        0.0096
     31 C         144.3141  139.3774  160.5351 C.3     1  UNL1        0.0012
     32 C         143.9726  140.8159  160.7885 C.3     1  UNL1        0.0087
     33 C         143.3818  141.2258  162.1049 C.3     1  UNL1        0.0446
     34 C         142.6587  142.5343  162.2276 C.ar    1  UNL1       -0.0183
     35 C         142.6142  143.2458  163.5474 C.ar    1  UNL1       -0.0017
     36 C         141.8912  144.5543  163.6700 C.ar    1  UNL1        0.0293
     37 C         141.2126  145.1513  162.4729 C.ar    1  UNL1        0.1401
     38 F         140.4896  146.4597  162.5955 F       1  UNL1       -0.2042
     39 C         141.2572  144.4398  161.1531 C.ar    1  UNL1        0.0293
     40 C         141.9802  143.1313  161.0305 C.ar    1  UNL1       -0.0017
     41 C         143.5140  140.3272  163.2987 C.ar    1  UNL1       -0.0183
     42 C         142.3027  139.6442  163.8612 C.ar    1  UNL1       -0.0017
     43 C         142.4349  138.7456  165.0549 C.ar    1  UNL1        0.0293
     44 C         143.7784  138.5300  165.6862 C.ar    1  UNL1        0.1401
     45 F         143.9105  137.6314  166.8800 F       1  UNL1       -0.2042
     46 C         144.9897  139.2130  165.1238 C.ar    1  UNL1        0.0293
     47 C         144.8575  140.1115  163.9301 C.ar    1  UNL1       -0.0017
@<TRIPOS>BOND
     1    23    24    1
     2    24     9    1
     3     9    10   ar
     4    10    15    1
     5    15    16    1
     6    15    17    1
     7    15    18    1
     8    10    11   ar
     9    11    12   ar
    10    12     2    1
    11     2     3    2
    12     2     4   am
    13     4     5    1
    14     5     6    1
    15     6     7    1
    16     7     1    1
    17     1    25    1
    18    25    26   am
    19    26    27    2
    20    26    29    1
    21    29    30    1
    22    30    31    1
    23    31    32    1
    24    32    33    1
    25    33    34    1
    26    34    35   ar
    27    35    36   ar
    28    36    37   ar
    29    37    38    1
    30    37    39   ar
    31    39    40   ar
    32    33    41    1
    33    41    42   ar
    34    42    43   ar
    35    43    44   ar
    36    44    45    1
    37    44    46   ar
    38    46    47   ar
    39     7     8    1
    40    12    13   ar
    41    13    14   ar
    42    14    19    1
    43    19    20    1
    44    19    21    1
    45    19    22    1
    46    14     9   ar
    47     8     4    1
    48    40    34   ar
    49    47    41   ar
    50    25    28    1
@<TRIPOS>MOLECULE
*****
 47 50 0 0 0
SMALL
GASTEIGER

@<TRIPOS>ATOM
      1 C         144.6511  142.9451  164.0403 C.3     1  UNL1        0.0911
      2 C         140.1911  144.3058  161.5630 C.2     1  UNL1        0.2490
      3 O         139.3031  145.5091  161.4467 O.2     1  UNL1       -0.2699
      4 N         141.4208  144.3612  162.4201 N.am    1  UNL1       -0.2760
      5 C         141.8885  145.5438  163.2156 C.3     1  UNL1        0.0938
      6 C         143.1556  145.1572  163.9194 C.3     1  UNL1        0.0249
      7 C         143.4709  143.7357  163.5588 C.3     1  UNL1        0.0412
      8 C         142.3988  143.2438  162.6322 C.3     1  UNL1        0.0954
      9 C         139.1658  140.5297  159.3405 C.ar    1  UNL1        0.1306
     10 C         139.3602  140.4955  160.8274 C.ar    1  UNL1        0.0110
     11 C         139.7020  141.7542  161.5682 C.ar    1  UNL1        0.0032
     12 C         139.8493  143.0471  160.8222 C.ar    1  UNL1        0.0532
     13 C         139.6549  143.0813  159.3352 C.ar    1  UNL1        0.0032
     14 C         139.3132  141.8225  158.5944 C.ar    1  UNL1        0.0110
     15 C         139.2129  139.2026  161.5736 C.3     1  UNL1        0.0218
     16 C         140.7020  139.0237  161.5579 C.3     1  UNL1        0.0045
     17 C         137.7237  139.3814  161.5892 C.3     1  UNL1        0.0045
     18 C         139.0655  137.9097  162.3197 C.3     1  UNL1        0.0045
     19 C         139.1188  141.8568  157.1074 C.3     1  UNL1        0.0218
     20 C         137.6384  141.9966  157.3042 C.3     1  UNL1        0.0045
     21 C         140.5992  141.7170  156.9106 C.3     1  UNL1        0.0045
     22 C         138.9243  141.8910  155.6205 C.3     1  UNL1        0.0045
     23 C         139.9180  138.3854  158.0810 C.3     1  UNL1        0.2524
     24 O         138.8241  139.2709  158.5996 O.3     1  UNL1       -0.4721
     25 N         144.4600  141.5472  164.5496 N.am    1  UNL1       -0.3043
     26 C         144.5458  140.3860  163.6039 C.2     1  UNL1        0.2225
     27 O         144.8227  140.6227  162.1488 O.2     1  UNL1       -0.2751
     28 H         144.2783  141.3918  165.5047 H       1  UNL1        0.1494
     29 C         144.3547  138.9882  164.1133 C.3     1  UNL1        0.0850
     30 C         143.8134  138.7603  165.4935 C.3     1  UNL1        0.0096
     31 C         142.3518  138.4866  165.6902 C.3     1  UNL1        0.0012
     32 C         141.3307  139.4516  165.1649 C.3     1  UNL1        0.0087
     33 C         140.7755  140.5181  166.0617 C.3     1  UNL1        0.0446
     34 C         141.1704  140.5622  167.5082 C.ar    1  UNL1       -0.0183
     35 C         142.4588  141.2140  167.9143 C.ar    1  UNL1       -0.0017
     36 C         142.8537  141.2581  169.3608 C.ar    1  UNL1        0.0293
     37 C         141.9602  140.6503  170.4010 C.ar    1  UNL1        0.1401
     38 F         142.3550  140.6944  171.8474 F       1  UNL1       -0.2042
     39 C         140.6717  139.9985  169.9948 C.ar    1  UNL1        0.0293
     40 C         140.2768  139.9545  168.5484 C.ar    1  UNL1       -0.0017
     41 C         139.8254  141.5406  165.5122 C.ar    1  UNL1       -0.0183
     42 C         140.1337  143.0020  165.6510 C.ar    1  UNL1       -0.0017
     43 C         139.1836  144.0244  165.1015 C.ar    1  UNL1        0.0293
     44 C         137.9253  143.5854  164.4132 C.ar    1  UNL1        0.1401
     45 F         136.9752  144.6079  163.8636 F       1  UNL1       -0.2042
     46 C         137.6169  142.1240  164.2743 C.ar    1  UNL1        0.0293
     47 C         138.5670  141.1017  164.8239 C.ar    1  UNL1       -0.0017
@<TRIPOS>BOND
     1    23    24    1
     2    24     9    1
     3     9    10   ar
     4    10    15    1
     5    15    16    1
     6    15    17    1
     7    15    18    1
     8    10    11   ar
     9    11    12   ar
    10    12     2    1
    11     2     3    2
    12     2     4   am
    13     4     5    1
    14     5     6    1
    15     6     7    1
    16     7     1    1
    17     1    25    1
    18    25    26   am
    19    26    27    2
    20    26    29    1
    21    29    30    1
    22    30    31    1
    23    31    32    1
    24    32    33    1
    25    33    34    1
    26    34    35   ar
    27    35    36   ar
    28    36    37   ar
    29    37    38    1
    30    37    39   ar
    31    39    40   ar
    32    33    41    1
    33    41    42   ar
    34    42    43   ar
    35    43    44   ar
    36    44    45    1
    37    44    46   ar
    38    46    47   ar
    39     7     8    1
    40    12    13   ar
    41    13    14   ar
    42    14    19    1
    43    19    20    1
    44    19    21    1
    45    19    22    1
    46    14     9   ar
    47     8     4    1
    48    40    34   ar
    49    47    41   ar
    50    25    28    1
@<TRIPOS>MOLECULE
*****
 47 50 0 0 0
SMALL
GASTEIGER

@<TRIPOS>ATOM
      1 C         142.5505  143.7010  160.8627 C.3     1  UNL1        0.0911
      2 C         139.1033  144.1800  164.8336 C.2     1  UNL1        0.2490
      3 O         137.9304  145.0430  165.1936 O.2     1  UNL1       -0.2699
      4 N         139.8290  144.4024  163.5399 N.am    1  UNL1       -0.2760
      5 C         139.4989  145.4433  162.5114 C.3     1  UNL1        0.0938
      6 C         140.4783  145.3072  161.3833 C.3     1  UNL1        0.0249
      7 C         141.4136  144.1822  161.7146 C.3     1  UNL1        0.0412
      8 C         141.0124  143.6231  163.0474 C.3     1  UNL1        0.0954
      9 C         140.4447  140.9238  167.6350 C.ar    1  UNL1        0.1306
     10 C         140.7676  142.3563  167.9408 C.ar    1  UNL1        0.0110
     11 C         140.3204  143.4417  167.0070 C.ar    1  UNL1        0.0032
     12 C         139.5504  143.0946  165.7674 C.ar    1  UNL1        0.0532
     13 C         139.2276  141.6621  165.4616 C.ar    1  UNL1        0.0032
     14 C         139.6747  140.5766  166.3954 C.ar    1  UNL1        0.0110
     15 C         141.5376  142.7035  169.1804 C.3     1  UNL1        0.0218
     16 C         140.2890  143.2561  169.8013 C.3     1  UNL1        0.0045
     17 C         142.7862  142.1509  168.5595 C.3     1  UNL1        0.0045
     18 C         142.3076  143.0507  170.4199 C.3     1  UNL1        0.0045
     19 C         139.3518  139.1440  166.0896 C.3     1  UNL1        0.0218
     20 C         137.9138  139.3945  166.4350 C.3     1  UNL1        0.0045
     21 C         140.7899  138.8936  165.7442 C.3     1  UNL1        0.0045
     22 C         139.0289  137.7115  165.7838 C.3     1  UNL1        0.0045
     23 C         140.2779  139.7221  169.9324 C.3     1  UNL1        0.2524
     24 O         140.8919  139.8384  168.5688 O.3     1  UNL1       -0.4721
     25 N         142.4343  142.4026  160.1206 N.am    1  UNL1       -0.3043
     26 C         143.6310  141.8285  159.4219 C.2     1  UNL1        0.2225
     27 O         144.9439  142.5527  159.4652 O.2     1  UNL1       -0.2751
     28 H         141.5726  141.9273  160.0922 H       1  UNL1        0.1494
     29 C         143.5149  140.5301  158.6798 C.3     1  UNL1        0.0850
     30 C         143.2359  139.2606  159.4285 C.3     1  UNL1        0.0096
     31 C         144.2671  138.6979  160.3611 C.3     1  UNL1        0.0012
     32 C         143.9587  138.5549  161.8221 C.3     1  UNL1        0.0087
     33 C         143.0014  139.5020  162.4828 C.3     1  UNL1        0.0446
     34 C         143.5228  140.6491  163.2966 C.ar    1  UNL1       -0.0183
     35 C         142.8649  141.0068  164.5963 C.ar    1  UNL1       -0.0017
     36 C         143.3863  142.1539  165.4102 C.ar    1  UNL1        0.0293
     37 C         144.5656  142.9433  164.9243 C.ar    1  UNL1        0.1401
     38 F         145.0870  144.0903  165.7381 F       1  UNL1       -0.2042
     39 C         145.2235  142.5855  163.6246 C.ar    1  UNL1        0.0293
     40 C         144.7021  141.4385  162.8108 C.ar    1  UNL1       -0.0017
     41 C         141.5226  139.3021  162.3296 C.ar    1  UNL1       -0.0183
     42 C         140.9507  137.9154  162.3165 C.ar    1  UNL1       -0.0017
     43 C         139.4720  137.7155  162.1634 C.ar    1  UNL1        0.0293
     44 C         138.5653  138.9022  162.0234 C.ar    1  UNL1        0.1401
     45 F         137.0866  138.7022  161.8702 F       1  UNL1       -0.2042
     46 C         139.1372  140.2888  162.0365 C.ar    1  UNL1        0.0293
     47 C         140.6159  140.4887  162.1897 C.ar    1  UNL1       -0.0017
@<TRIPOS>BOND
     1    23    24    1
     2    24     9    1
     3     9    10   ar
     4    10    15    1
     5    15    16    1
     6    15    17    1
     7    15    18    1
     8    10    11   ar
     9    11    12   ar
    10    12     2    1
    11     2     3    2
    12     2     4   am
    13     4     5    1
    14     5     6    1
    15     6     7    1
    16     7     1    1
    17     1    25    1
    18    25    26   am
    19    26    27    2
    20    26    29    1
    21    29    30    1
    22    30    31    1
    23    31    32    1
    24    32    33    1
    25    33    34    1
    26    34    35   ar
    27    35    36   ar
    28    36    37   ar
    29    37    38    1
    30    37    39   ar
    31    39    40   ar
    32    33    41    1
    33    41    42   ar
    34    42    43   ar
    35    43    44   ar
    36    44    45    1
    37    44    46   ar
    38    46    47   ar
    39     7     8    1
    40    12    13   ar
    41    13    14   ar
    42    14    19    1
    43    19    20    1
    44    19    21    1
    45    19    22    1
    46    14     9   ar
    47     8     4    1
    48    40    34   ar
    49    47    41   ar
    50    25    28    1
@<TRIPOS>MOLECULE
*****
 47 50 0 0 0
SMALL
GASTEIGER

@<TRIPOS>ATOM
      1 C         137.3487  141.6783  163.8096 C.3     1  UNL1        0.0911
      2 C         140.9922  143.9894  160.7658 C.2     1  UNL1        0.2490
      3 O         141.4684  145.3777  160.4562 O.2     1  UNL1       -0.2699
      4 N         139.8725  143.7809  161.7419 N.am    1  UNL1       -0.2760
      5 C         139.1362  144.8578  162.4824 C.3     1  UNL1        0.0938
      6 C         138.1011  144.2012  163.3471 C.3     1  UNL1        0.0249
      7 C         138.1977  142.7185  163.1410 C.3     1  UNL1        0.0412
      8 C         139.2925  142.4587  162.1490 C.3     1  UNL1        0.0954
      9 C         142.9226  140.4503  158.7664 C.ar    1  UNL1        0.1306
     10 C         142.6315  140.4140  160.2373 C.ar    1  UNL1        0.0110
     11 C         141.9880  141.5938  160.9038 C.ar    1  UNL1        0.0032
     12 C         141.6357  142.8097  160.0993 C.ar    1  UNL1        0.0532
     13 C         141.9268  142.8460  158.6283 C.ar    1  UNL1        0.0032
     14 C         142.5703  141.6662  157.9619 C.ar    1  UNL1        0.0110
     15 C         142.9838  139.1980  161.0419 C.3     1  UNL1        0.0218
     16 C         144.3688  139.7357  161.2482 C.3     1  UNL1        0.0045
     17 C         141.5988  138.6603  160.8357 C.3     1  UNL1        0.0045
     18 C         143.3360  137.9821  161.8465 C.3     1  UNL1        0.0045
     19 C         142.8615  141.7025  156.4908 C.3     1  UNL1        0.0218
     20 C         141.4470  141.2960  156.2009 C.3     1  UNL1        0.0045
     21 C         144.2759  142.1090  156.7807 C.3     1  UNL1        0.0045
     22 C         143.1525  141.7388  155.0198 C.3     1  UNL1        0.0045
     23 C         142.7144  138.1976  157.4889 C.3     1  UNL1        0.2524
     24 O         143.5661  139.2706  158.0999 O.3     1  UNL1       -0.4721
     25 N         137.9948  140.5259  164.5197 N.am    1  UNL1       -0.3043
     26 C         138.3090  139.2646  163.7711 C.2     1  UNL1        0.2225
     27 O         137.9772  139.1557  162.3123 O.2     1  UNL1       -0.2751
     28 H         138.2127  140.5973  165.4771 H       1  UNL1        0.1494
     29 C         138.9552  138.1121  164.4812 C.3     1  UNL1        0.0850
     30 C         140.2819  137.5915  164.0135 C.3     1  UNL1        0.0096
     31 C         141.4241  137.4742  164.9786 C.3     1  UNL1        0.0012
     32 C         142.5371  138.4794  164.9494 C.3     1  UNL1        0.0087
     33 C         142.3895  139.7832  165.6762 C.3     1  UNL1        0.0446
     34 C         141.7971  139.8108  167.0541 C.ar    1  UNL1       -0.0183
     35 C         140.3575  140.1868  167.2441 C.ar    1  UNL1       -0.0017
     36 C         139.7652  140.2144  168.6219 C.ar    1  UNL1        0.0293
     37 C         140.6124  139.8662  169.8097 C.ar    1  UNL1        0.1401
     38 F         140.0201  139.8938  171.1874 F       1  UNL1       -0.2042
     39 C         142.0521  139.4902  169.6196 C.ar    1  UNL1        0.0293
     40 C         142.6444  139.4626  168.2418 C.ar    1  UNL1       -0.0017
     41 C         142.8343  141.0593  165.0253 C.ar    1  UNL1       -0.0183
     42 C         141.8728  142.2013  164.8789 C.ar    1  UNL1       -0.0017
     43 C         142.3175  143.4774  164.2281 C.ar    1  UNL1        0.0293
     44 C         143.7237  143.6116  163.7235 C.ar    1  UNL1        0.1401
     45 F         144.1684  144.8877  163.0726 F       1  UNL1       -0.2042
     46 C         144.6852  142.4696  163.8699 C.ar    1  UNL1        0.0293
     47 C         144.2405  141.1935  164.5207 C.ar    1  UNL1       -0.0017
@<TRIPOS>BOND
     1    23    24    1
     2    24     9    1
     3     9    10   ar
     4    10    15    1
     5    15    16    1
     6    15    17    1
     7    15    18    1
     8    10    11   ar
     9    11    12   ar
    10    12     2    1
    11     2     3    2
    12     2     4   am
    13     4     5    1
    14     5     6    1
    15     6     7    1
    16     7     1    1
    17     1    25    1
    18    25    26   am
    19    26    27    2
    20    26    29    1
    21    29    30    1
    22    30    31    1
    23    31    32    1
    24    32    33    1
    25    33    34    1
    26    34    35   ar
    27    35    36   ar
    28    36    37   ar
    29    37    38    1
    30    37    39   ar
    31    39    40   ar
    32    33    41    1
    33    41    42   ar
    34    42    43   ar
    35    43    44   ar
    36    44    45    1
    37    44    46   ar
    38    46    47   ar
    39     7     8    1
    40    12    13   ar
    41    13    14   ar
    42    14    19    1
    43    19    20    1
    44    19    21    1
    45    19    22    1
    46    14     9   ar
    47     8     4    1
    48    40    34   ar
    49    47    41   ar
    50    25    28    1
@<TRIPOS>MOLECULE
*****
 47 50 0 0 0
SMALL
GASTEIGER

@<TRIPOS>ATOM
      1 C         138.0777  140.5749  164.6402 C.3     1  UNL1        0.0911
      2 C         139.5593  144.7091  161.7086 C.2     1  UNL1        0.2490
      3 O         139.3171  146.1887  161.6651 O.2     1  UNL1       -0.2699
      4 N         138.9027  143.8724  162.7664 N.am    1  UNL1       -0.2760
      5 C         137.9838  144.3721  163.8415 C.3     1  UNL1        0.0938
      6 C         137.5628  143.1976  164.6743 C.3     1  UNL1        0.0249
      7 C         138.2217  141.9721  164.1139 C.3     1  UNL1        0.0412
      8 C         139.0497  142.3891  162.9347 C.3     1  UNL1        0.0954
      9 C         142.2559  142.7801  158.6660 C.ar    1  UNL1        0.1306
     10 C         142.3637  142.3985  160.1127 C.ar    1  UNL1        0.0110
     11 C         141.4648  143.0415  161.1269 C.ar    1  UNL1        0.0032
     12 C         140.4582  144.0661  160.6944 C.ar    1  UNL1        0.0532
     13 C         140.3505  144.4476  159.2478 C.ar    1  UNL1        0.0032
     14 C         141.2493  143.8046  158.2336 C.ar    1  UNL1        0.0110
     15 C         143.3703  141.3740  160.5451 C.3     1  UNL1        0.0218
     16 C         144.4615  142.3965  160.4280 C.3     1  UNL1        0.0045
     17 C         142.2791  140.3514  160.6623 C.3     1  UNL1        0.0045
     18 C         144.3768  140.3494  160.9776 C.3     1  UNL1        0.0045
     19 C         141.1415  144.1862  156.7869 C.3     1  UNL1        0.0218
     20 C         140.0890  143.1361  156.5884 C.3     1  UNL1        0.0045
     21 C         142.1941  145.2363  156.9854 C.3     1  UNL1        0.0045
     22 C         141.0337  144.5677  155.3403 C.3     1  UNL1        0.0045
     23 C         142.7874  140.8091  157.0589 C.3     1  UNL1        0.2524
     24 O         143.1548  142.1371  157.6518 O.3     1  UNL1       -0.4721
     25 N         139.0759  139.5227  164.2575 N.am    1  UNL1       -0.3043
     26 C         138.8865  138.7324  162.9967 C.2     1  UNL1        0.2225
     27 O         137.6989  138.9942  162.1186 O.2     1  UNL1       -0.2751
     28 H         139.8554  139.3509  164.8338 H       1  UNL1        0.1494
     29 C         139.8847  137.6802  162.6140 C.3     1  UNL1        0.0850
     30 C         141.0062  137.3351  163.5485 C.3     1  UNL1        0.0096
     31 C         142.1147  138.3176  163.7850 C.3     1  UNL1        0.0012
     32 C         142.6743  138.4991  165.1649 C.3     1  UNL1        0.0087
     33 C         142.4801  139.7988  165.8880 C.3     1  UNL1        0.0446
     34 C         142.8994  141.0862  165.2424 C.ar    1  UNL1       -0.0183
     35 C         144.2837  141.2284  164.6825 C.ar    1  UNL1       -0.0017
     36 C         144.7030  142.5158  164.0370 C.ar    1  UNL1        0.0293
     37 C         143.7381  143.6610  163.9512 C.ar    1  UNL1        0.1401
     38 F         144.1574  144.9484  163.3057 F       1  UNL1       -0.2042
     39 C         142.3538  143.5187  164.5112 C.ar    1  UNL1        0.0293
     40 C         141.9344  142.2314  165.1567 C.ar    1  UNL1       -0.0017
     41 C         141.8665  139.8112  167.2568 C.ar    1  UNL1       -0.0183
     42 C         140.4289  140.2027  167.4308 C.ar    1  UNL1       -0.0017
     43 C         139.8154  140.2151  168.7994 C.ar    1  UNL1        0.0293
     44 C         140.6394  139.8360  169.9941 C.ar    1  UNL1        0.1401
     45 F         140.0258  139.8484  171.3628 F       1  UNL1       -0.2042
     46 C         142.0769  139.4444  169.8202 C.ar    1  UNL1        0.0293
     47 C         142.6904  139.4321  168.4515 C.ar    1  UNL1       -0.0017
@<TRIPOS>BOND
     1    23    24    1
     2    24     9    1
     3     9    10   ar
     4    10    15    1
     5    15    16    1
     6    15    17    1
     7    15    18    1
     8    10    11   ar
     9    11    12   ar
    10    12     2    1
    11     2     3    2
    12     2     4   am
    13     4     5    1
    14     5     6    1
    15     6     7    1
    16     7     1    1
    17     1    25    1
    18    25    26   am
    19    26    27    2
    20    26    29    1
    21    29    30    1
    22    30    31    1
    23    31    32    1
    24    32    33    1
    25    33    34    1
    26    34    35   ar
    27    35    36   ar
    28    36    37   ar
    29    37    38    1
    30    37    39   ar
    31    39    40   ar
    32    33    41    1
    33    41    42   ar
    34    42    43   ar
    35    43    44   ar
    36    44    45    1
    37    44    46   ar
    38    46    47   ar
    39     7     8    1
    40    12    13   ar
    41    13    14   ar
    42    14    19    1
    43    19    20    1
    44    19    21    1
    45    19    22    1
    46    14     9   ar
    47     8     4    1
    48    40    34   ar
    49    47    41   ar
    50    25    28    1
