@<TRIPOS>MOLECULE
*****
 20 21 0 0 0
SMALL
GASTEIGER

@<TRIPOS>ATOM
      1 N         142.2169  139.8940  167.0274 N.am    1  UNL1       -0.2763
      2 C         142.9210  138.7525  166.3558 C.2     1  UNL1        0.2499
      3 O         143.9561  137.9654  167.1036 O.2     1  UNL1       -0.2699
      4 C         142.5899  138.3979  164.9364 C.ar    1  UNL1        0.0650
      5 C         141.3691  137.5810  164.6326 C.ar    1  UNL1        0.0054
      6 C         141.0381  137.2264  163.2132 C.ar    1  UNL1        0.0011
      7 C         141.9278  137.6887  162.0976 C.ar    1  UNL1        0.0123
      8 C         143.1487  138.5056  162.4014 C.ar    1  UNL1        0.0683
      9 CL        144.0384  138.9679  161.2858 Cl      1  UNL1       -0.0814
     10 C         143.4797  138.8601  163.8208 C.ar    1  UNL1        0.0725
     11 CL        144.7006  139.6770  164.1246 Cl      1  UNL1       -0.0812
     12 C         142.5480  140.2486  168.4469 C.3     1  UNL1        0.0927
     13 C         142.3223  139.3794  169.6483 C.3     1  UNL1        0.0383
     14 C         142.7977  140.1282  170.8581 C.3     1  UNL1        0.0704
     15 N         143.3172  141.4602  170.4041 N.3     1  UNL1       -0.2960
     16 C         143.1629  141.5346  168.9140 C.3     1  UNL1        0.0887
     17 H         144.3016  141.5516  170.6552 H       1  UNL1        0.1233
     18 C         141.1818  140.6810  166.2797 C.3     1  UNL1        0.0937
     19 C         139.0058  139.4367  166.9630 C.3     1  UNL1        0.0018
     20 C         139.7655  140.7160  166.7727 C.3     1  UNL1        0.0215
@<TRIPOS>BOND
     1    19    20    1
     2    20    18    1
     3    18     1    1
     4     1     2   am
     5     2     3    2
     6     2     4    1
     7     4     5   ar
     8     5     6   ar
     9     6     7   ar
    10     7     8   ar
    11     8     9    1
    12     8    10   ar
    13    10    11    1
    14    12     1    1
    15    12    13    1
    16    13    14    1
    17    14    15    1
    18    15    16    1
    19    10     4   ar
    20    16    12    1
    21    15    17    1
@<TRIPOS>MOLECULE
*****
 20 21 0 0 0
SMALL
GASTEIGER

@<TRIPOS>ATOM
      1 N         140.4668  140.0659  167.3631 N.am    1  UNL1       -0.2763
      2 C         139.1729  139.4354  166.9411 C.2     1  UNL1        0.2499
      3 O         138.1159  139.1366  167.9625 O.2     1  UNL1       -0.2699
      4 C         138.9361  139.1036  165.4975 C.ar    1  UNL1        0.0650
      5 C         139.2060  137.7172  164.9925 C.ar    1  UNL1        0.0054
      6 C         138.9691  137.3855  163.5490 C.ar    1  UNL1        0.0011
      7 C         138.4623  138.4402  162.6104 C.ar    1  UNL1        0.0123
      8 C         138.1924  139.8266  163.1154 C.ar    1  UNL1        0.0683
      9 CL        137.6855  140.8812  162.1769 Cl      1  UNL1       -0.0814
     10 C         138.4292  140.1583  164.5589 C.ar    1  UNL1        0.0725
     11 CL        138.1593  141.5447  165.0640 Cl      1  UNL1       -0.0812
     12 C         140.7037  140.3977  168.8067 C.3     1  UNL1        0.0927
     13 C         140.1812  141.6025  169.5316 C.3     1  UNL1        0.0383
     14 C         140.6593  141.5324  170.9518 C.3     1  UNL1        0.0704
     15 N         141.4772  140.2843  171.1044 N.3     1  UNL1       -0.2960
     16 C         141.5046  139.5830  169.7787 C.3     1  UNL1        0.0887
     17 H         141.0555  139.6780  171.8080 H       1  UNL1        0.1233
     18 C         141.5239  140.3647  166.3417 C.3     1  UNL1        0.0937
     19 C         142.8412  138.5300  165.0577 C.3     1  UNL1        0.0018
     20 C         142.7227  139.4713  166.2196 C.3     1  UNL1        0.0215
@<TRIPOS>BOND
     1    19    20    1
     2    20    18    1
     3    18     1    1
     4     1     2   am
     5     2     3    2
     6     2     4    1
     7     4     5   ar
     8     5     6   ar
     9     6     7   ar
    10     7     8   ar
    11     8     9    1
    12     8    10   ar
    13    10    11    1
    14    12     1    1
    15    12    13    1
    16    13    14    1
    17    14    15    1
    18    15    16    1
    19    10     4   ar
    20    16    12    1
    21    15    17    1
@<TRIPOS>MOLECULE
*****
 20 21 0 0 0
SMALL
GASTEIGER

@<TRIPOS>ATOM
      1 N         141.2535  142.3251  167.3459 N.am    1  UNL1       -0.2763
      2 C         142.7514  142.3300  167.2667 C.2     1  UNL1        0.2499
      3 O         143.5686  142.4025  168.5224 O.2     1  UNL1       -0.2699
      4 C         143.4321  142.2625  165.9317 C.ar    1  UNL1        0.0650
      5 C         143.8932  143.5221  165.2603 C.ar    1  UNL1        0.0054
      6 C         144.5739  143.4545  163.9254 C.ar    1  UNL1        0.0011
      7 C         144.7934  142.1273  163.2618 C.ar    1  UNL1        0.0123
      8 C         144.3322  140.8677  163.9331 C.ar    1  UNL1        0.0683
      9 CL        144.5517  139.5405  163.2695 Cl      1  UNL1       -0.0814
     10 C         143.6516  140.9353  165.2681 C.ar    1  UNL1        0.0725
     11 CL        143.1904  139.6756  165.9395 Cl      1  UNL1       -0.0812
     12 C         140.5728  142.3927  168.6809 C.3     1  UNL1        0.0927
     13 C         140.4660  143.6066  169.5556 C.3     1  UNL1        0.0383
     14 C         139.7066  143.2224  170.7909 C.3     1  UNL1        0.0704
     15 N         139.3442  141.7710  170.6796 N.3     1  UNL1       -0.2960
     16 C         139.8795  141.2583  169.3756 C.3     1  UNL1        0.0887
     17 H         138.3300  141.6647  170.7032 H       1  UNL1        0.1233
     18 C         140.4363  142.2526  166.0902 C.3     1  UNL1        0.0937
     19 C         140.2985  144.2496  164.4339 C.3     1  UNL1        0.0018
     20 C         139.7282  143.4746  165.5846 C.3     1  UNL1        0.0215
@<TRIPOS>BOND
     1    19    20    1
     2    20    18    1
     3    18     1    1
     4     1     2   am
     5     2     3    2
     6     2     4    1
     7     4     5   ar
     8     5     6   ar
     9     6     7   ar
    10     7     8   ar
    11     8     9    1
    12     8    10   ar
    13    10    11    1
    14    12     1    1
    15    12    13    1
    16    13    14    1
    17    14    15    1
    18    15    16    1
    19    10     4   ar
    20    16    12    1
    21    15    17    1
@<TRIPOS>MOLECULE
*****
 20 21 0 0 0
SMALL
GASTEIGER

@<TRIPOS>ATOM
      1 N         140.6658  140.3162  167.0896 N.am    1  UNL1       -0.2763
      2 C         139.2971  139.8259  166.7209 C.2     1  UNL1        0.2499
      3 O         138.4540  139.1186  167.7401 O.2     1  UNL1       -0.2699
      4 C         138.7713  140.0430  165.3329 C.ar    1  UNL1        0.0650
      5 C         138.2417  141.3882  164.9333 C.ar    1  UNL1        0.0054
      6 C         137.7159  141.6052  163.5454 C.ar    1  UNL1        0.0011
      7 C         137.7198  140.4769  162.5569 C.ar    1  UNL1        0.0123
      8 C         138.2495  139.1317  162.9565 C.ar    1  UNL1        0.0683
      9 CL        138.2534  138.0034  161.9681 Cl      1  UNL1       -0.0814
     10 C         138.7752  138.9147  164.3444 C.ar    1  UNL1        0.0725
     11 CL        139.3049  137.5694  164.7441 Cl      1  UNL1       -0.0812
     12 C         141.1916  140.0992  168.4776 C.3     1  UNL1        0.0927
     13 C         142.4412  139.3528  168.8404 C.3     1  UNL1        0.0383
     14 C         142.5820  139.3827  170.3335 C.3     1  UNL1        0.0704
     15 N         141.4194  140.1476  170.8935 N.3     1  UNL1       -0.2960
     16 C         140.5601  140.5904  169.7465 C.3     1  UNL1        0.0887
     17 H         141.7560  140.9614  171.4081 H       1  UNL1        0.1233
     18 C         141.5089  141.0236  166.0704 C.3     1  UNL1        0.0937
     19 C         143.5697  142.5767  165.7685 C.3     1  UNL1        0.0018
     20 C         142.2755  142.2543  166.4549 C.3     1  UNL1        0.0215
@<TRIPOS>BOND
     1    19    20    1
     2    20    18    1
     3    18     1    1
     4     1     2   am
     5     2     3    2
     6     2     4    1
     7     4     5   ar
     8     5     6   ar
     9     6     7   ar
    10     7     8   ar
    11     8     9    1
    12     8    10   ar
    13    10    11    1
    14    12     1    1
    15    12    13    1
    16    13    14    1
    17    14    15    1
    18    15    16    1
    19    10     4   ar
    20    16    12    1
    21    15    17    1
@<TRIPOS>MOLECULE
*****
 20 21 0 0 0
SMALL
GASTEIGER

@<TRIPOS>ATOM
      1 N         140.9082  141.8045  166.9623 N.am    1  UNL1       -0.2763
      2 C         140.0383  140.5827  166.9483 C.2     1  UNL1        0.2499
      3 O         139.5474  139.9966  168.2389 O.2     1  UNL1       -0.2699
      4 C         139.6591  139.9468  165.6437 C.ar    1  UNL1        0.0650
      5 C         138.3847  140.3428  164.9588 C.ar    1  UNL1        0.0054
      6 C         138.0056  139.7069  163.6542 C.ar    1  UNL1        0.0011
      7 C         138.9008  138.6751  163.0346 C.ar    1  UNL1        0.0123
      8 C         140.1751  138.2791  163.7195 C.ar    1  UNL1        0.0683
      9 CL        141.0703  137.2473  163.0999 Cl      1  UNL1       -0.0814
     10 C         140.5543  138.9150  165.0241 C.ar    1  UNL1        0.0725
     11 CL        141.8287  138.5190  165.7091 Cl      1  UNL1       -0.0812
     12 C         141.2875  142.4403  168.2669 C.3     1  UNL1        0.0927
     13 C         142.5979  142.2783  168.9787 C.3     1  UNL1        0.0383
     14 C         142.5432  143.0876  170.2405 C.3     1  UNL1        0.0704
     15 N         141.1989  143.7498  170.3085 N.3     1  UNL1       -0.2960
     16 C         140.4229  143.3497  169.0888 C.3     1  UNL1        0.0887
     17 H         141.3129  144.7632  170.3292 H       1  UNL1        0.1233
     18 C         141.3991  142.3905  165.6717 C.3     1  UNL1        0.0937
     19 C         139.3095  143.9162  165.4351 C.3     1  UNL1        0.0018
     20 C         140.7412  143.6139  165.1053 C.3     1  UNL1        0.0215
@<TRIPOS>BOND
     1    19    20    1
     2    20    18    1
     3    18     1    1
     4     1     2   am
     5     2     3    2
     6     2     4    1
     7     4     5   ar
     8     5     6   ar
     9     6     7   ar
    10     7     8   ar
    11     8     9    1
    12     8    10   ar
    13    10    11    1
    14    12     1    1
    15    12    13    1
    16    13    14    1
    17    14    15    1
    18    15    16    1
    19    10     4   ar
    20    16    12    1
    21    15    17    1
@<TRIPOS>MOLECULE
*****
 20 21 0 0 0
SMALL
GASTEIGER

@<TRIPOS>ATOM
      1 N         140.6781  139.4474  165.4871 N.am    1  UNL1       -0.2763
      2 C         141.7062  140.3810  166.0540 C.2     1  UNL1        0.2499
      3 O         143.0218  140.5609  165.3561 O.2     1  UNL1       -0.2699
      4 C         141.4189  141.1347  167.3187 C.ar    1  UNL1        0.0650
      5 C         140.6838  142.4409  167.2628 C.ar    1  UNL1        0.0054
      6 C         140.3964  143.1945  168.5275 C.ar    1  UNL1        0.0011
      7 C         140.8442  142.6418  169.8481 C.ar    1  UNL1        0.0123
      8 C         141.5793  141.3356  169.9040 C.ar    1  UNL1        0.0683
      9 CL        142.0271  140.7829  171.2246 Cl      1  UNL1       -0.0814
     10 C         141.8667  140.5820  168.6393 C.ar    1  UNL1        0.0725
     11 CL        142.6018  139.2756  168.6952 Cl      1  UNL1       -0.0812
     12 C         140.9654  138.6938  164.2224 C.3     1  UNL1        0.0927
     13 C         141.0701  139.2854  162.8480 C.3     1  UNL1        0.0383
     14 C         141.3679  138.1735  161.8862 C.3     1  UNL1        0.0704
     15 N         141.4473  136.8947  162.6662 N.3     1  UNL1       -0.2960
     16 C         141.1986  137.2163  164.1101 C.3     1  UNL1        0.0887
     17 H         142.3732  136.4804  162.5584 H       1  UNL1        0.1233
     18 C         139.3625  139.2675  166.1850 C.3     1  UNL1        0.0937
     19 C         138.1904  141.0974  164.7610 C.3     1  UNL1        0.0018
     20 C         138.1140  139.8524  165.5941 C.3     1  UNL1        0.0215
@<TRIPOS>BOND
     1    19    20    1
     2    20    18    1
     3    18     1    1
     4     1     2   am
     5     2     3    2
     6     2     4    1
     7     4     5   ar
     8     5     6   ar
     9     6     7   ar
    10     7     8   ar
    11     8     9    1
    12     8    10   ar
    13    10    11    1
    14    12     1    1
    15    12    13    1
    16    13    14    1
    17    14    15    1
    18    15    16    1
    19    10     4   ar
    20    16    12    1
    21    15    17    1
@<TRIPOS>MOLECULE
*****
 20 21 0 0 0
SMALL
GASTEIGER

@<TRIPOS>ATOM
      1 N         141.7724  141.0350  167.1474 N.am    1  UNL1       -0.2763
      2 C         142.2990  139.6516  166.9052 C.2     1  UNL1        0.2499
      3 O         143.0575  138.9381  167.9848 O.2     1  UNL1       -0.2699
      4 C         142.0672  138.9816  165.5832 C.ar    1  UNL1        0.0650
      5 C         140.7825  138.2507  165.3279 C.ar    1  UNL1        0.0054
      6 C         140.5507  137.5807  164.0060 C.ar    1  UNL1        0.0011
      7 C         141.6037  137.6417  162.9395 C.ar    1  UNL1        0.0123
      8 C         142.8884  138.3726  163.1948 C.ar    1  UNL1        0.0683
      9 CL        143.9413  138.4336  162.1282 Cl      1  UNL1       -0.0814
     10 C         143.1202  139.0426  164.5166 C.ar    1  UNL1        0.0725
     11 CL        144.4049  139.7735  164.7720 Cl      1  UNL1       -0.0812
     12 C         142.0042  141.7050  168.4694 C.3     1  UNL1        0.0927
     13 C         143.2959  142.3062  168.9385 C.3     1  UNL1        0.0383
     14 C         143.0751  142.8642  170.3133 C.3     1  UNL1        0.0704
     15 N         141.6469  142.6078  170.6937 N.3     1  UNL1       -0.2960
     16 C         140.9851  141.8914  169.5541 C.3     1  UNL1        0.0887
     17 H         141.1712  143.4928  170.8692 H       1  UNL1        0.1233
     18 C         141.0139  141.7485  166.0678 C.3     1  UNL1        0.0937
     19 C         141.6743  142.3283  163.6228 C.3     1  UNL1        0.0018
     20 C         141.7431  142.6237  165.0918 C.3     1  UNL1        0.0215
@<TRIPOS>BOND
     1    19    20    1
     2    20    18    1
     3    18     1    1
     4     1     2   am
     5     2     3    2
     6     2     4    1
     7     4     5   ar
     8     5     6   ar
     9     6     7   ar
    10     7     8   ar
    11     8     9    1
    12     8    10   ar
    13    10    11    1
    14    12     1    1
    15    12    13    1
    16    13    14    1
    17    14    15    1
    18    15    16    1
    19    10     4   ar
    20    16    12    1
    21    15    17    1
@<TRIPOS>MOLECULE
*****
 20 21 0 0 0
SMALL
GASTEIGER

@<TRIPOS>ATOM
      1 N         141.8172  141.0518  166.9153 N.am    1  UNL1       -0.2763
      2 C         140.3299  140.8639  166.9664 C.2     1  UNL1        0.2499
      3 O         139.6189  140.8635  168.2871 O.2     1  UNL1       -0.2699
      4 C         139.5536  140.6764  165.6966 C.ar    1  UNL1        0.0650
      5 C         139.2875  139.2945  165.1773 C.ar    1  UNL1        0.0054
      6 C         138.5113  139.1070  163.9076 C.ar    1  UNL1        0.0011
      7 C         138.0011  140.3014  163.1572 C.ar    1  UNL1        0.0123
      8 C         138.2671  141.6832  163.6764 C.ar    1  UNL1        0.0683
      9 CL        137.7569  142.8776  162.9260 Cl      1  UNL1       -0.0814
     10 C         139.0434  141.8707  164.9461 C.ar    1  UNL1        0.0725
     11 CL        139.3095  143.2526  165.4655 Cl      1  UNL1       -0.0812
     12 C         142.5935  141.2394  168.1851 C.3     1  UNL1        0.0927
     13 C         143.3435  142.4752  168.5855 C.3     1  UNL1        0.0383
     14 C         143.9696  142.2237  169.9253 C.3     1  UNL1        0.0704
     15 N         143.6065  140.8324  170.3527 N.3     1  UNL1       -0.2960
     16 C         142.7560  140.2241  169.2773 C.3     1  UNL1        0.0887
     17 H         143.0858  140.8644  171.2292 H       1  UNL1        0.1233
     18 C         142.5282  141.0523  165.5946 C.3     1  UNL1        0.0937
     19 C         143.2053  138.5440  165.6084 C.3     1  UNL1        0.0018
     20 C         143.5197  139.9725  165.2762 C.3     1  UNL1        0.0215
@<TRIPOS>BOND
     1    19    20    1
     2    20    18    1
     3    18     1    1
     4     1     2   am
     5     2     3    2
     6     2     4    1
     7     4     5   ar
     8     5     6   ar
     9     6     7   ar
    10     7     8   ar
    11     8     9    1
    12     8    10   ar
    13    10    11    1
    14    12     1    1
    15    12    13    1
    16    13    14    1
    17    14    15    1
    18    15    16    1
    19    10     4   ar
    20    16    12    1
    21    15    17    1
@<TRIPOS>MOLECULE
*****
 20 21 0 0 0
SMALL
GASTEIGER

@<TRIPOS>ATOM
      1 N         141.0321  142.6433  164.4623 N.am    1  UNL1       -0.2763
      2 C         141.3112  141.2395  164.9111 C.2     1  UNL1        0.2499
      3 O         142.6095  140.5808  164.5501 O.2     1  UNL1       -0.2699
      4 C         140.2918  140.4944  165.7210 C.ar    1  UNL1        0.0650
      5 C         139.3669  139.5219  165.0512 C.ar    1  UNL1        0.0054
      6 C         138.3476  138.7768  165.8611 C.ar    1  UNL1        0.0011
      7 C         138.2533  139.0043  167.3407 C.ar    1  UNL1        0.0123
      8 C         139.1782  139.9768  168.0105 C.ar    1  UNL1        0.0683
      9 CL        139.0839  140.2043  169.4901 Cl      1  UNL1       -0.0814
     10 C         140.1975  140.7219  167.2006 C.ar    1  UNL1        0.0725
     11 CL        141.1225  141.6945  167.8704 Cl      1  UNL1       -0.0812
     12 C         142.0514  143.3885  163.6524 C.3     1  UNL1        0.0927
     13 C         143.2018  144.1819  164.1975 C.3     1  UNL1        0.0383
     14 C         143.9607  144.7548  163.0373 C.3     1  UNL1        0.0704
     15 N         143.2793  144.3153  161.7753 N.3     1  UNL1       -0.2960
     16 C         142.0993  143.4709  162.1555 C.3     1  UNL1        0.0887
     17 H         143.9256  143.7702  161.2047 H       1  UNL1        0.1233
     18 C         139.7337  143.3021  164.8233 C.3     1  UNL1        0.0937
     19 C         137.5329  142.3896  163.7871 C.3     1  UNL1        0.0018
     20 C         138.6366  143.4052  163.8056 C.3     1  UNL1        0.0215
@<TRIPOS>BOND
     1    19    20    1
     2    20    18    1
     3    18     1    1
     4     1     2   am
     5     2     3    2
     6     2     4    1
     7     4     5   ar
     8     5     6   ar
     9     6     7   ar
    10     7     8   ar
    11     8     9    1
    12     8    10   ar
    13    10    11    1
    14    12     1    1
    15    12    13    1
    16    13    14    1
    17    14    15    1
    18    15    16    1
    19    10     4   ar
    20    16    12    1
    21    15    17    1
