@<TRIPOS>MOLECULE
*****
 40 44 0 0 0
SMALL
GASTEIGER

@<TRIPOS>ATOM
      1 C         144.3461  139.3339  164.5137 C.3     1  UNL1        0.1747
      2 N         144.3851  139.2341  161.9179 N.am    1  UNL1       -0.3018
      3 C         143.7639  138.8363  163.2239 C.2     1  UNL1        0.2425
      4 O         142.5606  137.9408  163.2403 O.2     1  UNL1       -0.2733
      5 H         145.1749  139.8218  161.9072 H       1  UNL1        0.1495
      6 N         142.9797  138.0326  158.8042 N.3     1  UNL1       -0.2711
      7 C         143.2058  137.4410  160.1639 C.3     1  UNL1        0.0933
      8 C         143.8030  138.7365  160.6281 C.3     1  UNL1        0.1035
      9 C         143.5768  139.3279  159.2684 C.3     1  UNL1        0.0933
     10 C         141.2332  136.5397  154.9349 C.3     1  UNL1        0.0992
     11 C         142.7081  136.4282  155.1845 C.3     1  UNL1        0.0125
     12 C         143.2902  136.9258  156.4742 C.3     1  UNL1        0.0165
     13 C         142.3975  137.5349  157.5144 C.3     1  UNL1        0.0576
     14 C         140.9226  137.6464  157.2648 C.3     1  UNL1        0.0165
     15 C         140.3405  137.1488  155.9752 C.3     1  UNL1        0.0125
     16 C         140.6510  136.0421  153.6452 C.2     1  UNL1        0.3164
     17 O         139.3442  136.5887  153.1519 O.2     1  UNL1       -0.2501
     18 O         141.3756  134.9977  152.8487 O.3     1  UNL1       -0.4485
     19 C         141.6513  132.9299  154.3973 C.3     1  UNL1        0.0513
     20 C         141.1387  133.5431  153.1280 C.3     1  UNL1        0.2086
     21 N         143.6100  140.3611  165.3219 N.pl3   1  UNL1       -0.3093
     22 H         143.8970  140.5618  166.2420 H       1  UNL1        0.1487
     23 C         142.4366  141.0827  164.7281 C.ar    1  UNL1        0.1500
     24 N         142.4947  142.3443  163.9189 N.ar    1  UNL1       -0.1545
     25 N         141.0931  142.7105  163.5301 N.ar    1  UNL1       -0.2517
     26 C         140.1687  141.6752  164.0989 C.ar    1  UNL1        0.0805
     27 C         138.6781  141.5186  164.0383 C.ar    1  UNL1        0.0188
     28 C         138.0179  140.3559  164.7181 C.ar    1  UNL1        0.0054
     29 C         138.8483  139.3498  165.4586 C.ar    1  UNL1        0.0716
     30 C         140.3388  139.5064  165.5192 C.ar    1  UNL1        0.0082
     31 C         140.9990  140.6691  164.8393 C.ar    1  UNL1        0.0503
     32 C         140.6871  143.9028  162.7154 C.3     1  UNL1        0.1052
     33 C         140.9131  144.0833  161.2436 C.3     1  UNL1        0.0244
     34 C         140.3494  145.4159  160.8480 C.3     1  UNL1        0.0021
     35 C         139.7751  146.0590  162.0754 C.3     1  UNL1        0.0021
     36 C         139.9837  145.1238  163.2295 C.3     1  UNL1        0.0244
     37 C         138.1880  138.1871  166.1384 C.3     1  UNL1        0.4186
     38 F         137.5277  137.0244  166.8183 F       1  UNL1       -0.1659
     39 F         138.8346  137.2492  165.1626 F       1  UNL1       -0.1659
     40 F         137.5414  139.1249  167.1143 F       1  UNL1       -0.1659
@<TRIPOS>BOND
     1    19    20    1
     2    20    18    1
     3    18    16    1
     4    16    17    2
     5    10    16    1
     6    10    11    1
     7    11    12    1
     8    12    13    1
     9    13     6    1
    10     6     7    1
    11     7     8    1
    12     8     2    1
    13     2     3   am
    14     3     4    2
    15     3     1    1
    16     1    21    1
    17    21    23    1
    18    23    24   ar
    19    24    25   ar
    20    25    32    1
    21    32    33    1
    22    33    34    1
    23    34    35    1
    24    35    36    1
    25    25    26   ar
    26    26    27   ar
    27    27    28   ar
    28    28    29   ar
    29    29    37    1
    30    37    38    1
    31    37    39    1
    32    37    40    1
    33    29    30   ar
    34    30    31   ar
    35     8     9    1
    36    13    14    1
    37    14    15    1
    38    15    10    1
    39     9     6    1
    40    31    23   ar
    41    36    32    1
    42    31    26   ar
    43     2     5    1
    44    21    22    1
@<TRIPOS>MOLECULE
*****
 40 44 0 0 0
SMALL
GASTEIGER

@<TRIPOS>ATOM
      1 C         143.3586  139.6997  157.3875 C.3     1  UNL1        0.1747
      2 N         143.8317  138.9408  159.8267 N.am    1  UNL1       -0.3018
      3 C         143.1145  139.8370  158.8611 C.2     1  UNL1        0.2425
      4 O         142.1532  140.8704  159.3690 O.2     1  UNL1       -0.2733
      5 H         144.4626  138.2625  159.4934 H       1  UNL1        0.1495
      6 N         143.2423  139.2722  163.3844 N.3     1  UNL1       -0.2711
      7 C         144.1609  139.9273  162.3959 C.3     1  UNL1        0.0933
      8 C         143.5875  139.0780  161.3004 C.3     1  UNL1        0.1035
      9 C         142.6690  138.4231  162.2889 C.3     1  UNL1        0.0933
     10 C         142.5098  139.6840  167.8053 C.3     1  UNL1        0.0992
     11 C         143.3751  138.5729  167.2887 C.3     1  UNL1        0.0125
     12 C         143.6192  138.4357  165.8151 C.3     1  UNL1        0.0165
     13 C         142.9981  139.4095  164.8580 C.3     1  UNL1        0.0576
     14 C         142.1329  140.5205  165.3746 C.3     1  UNL1        0.0165
     15 C         141.8887  140.6578  166.8481 C.3     1  UNL1        0.0125
     16 C         142.2656  139.8213  169.2788 C.2     1  UNL1        0.3164
     17 O         140.9817  139.3262  169.8757 O.2     1  UNL1       -0.2501
     18 O         143.3054  140.4539  170.1556 O.3     1  UNL1       -0.4485
     19 C         142.6650  142.9718  170.1687 C.3     1  UNL1        0.0513
     20 C         143.6832  141.8915  169.9538 C.3     1  UNL1        0.2086
     21 N         143.7224  138.3645  156.8087 N.pl3   1  UNL1       -0.3093
     22 H         144.6373  138.0158  156.9121 H       1  UNL1        0.1487
     23 C         142.6922  137.5604  156.0723 C.ar    1  UNL1        0.1500
     24 N         141.4411  138.0962  155.4416 N.ar    1  UNL1       -0.1545
     25 N         140.7080  136.9463  154.8169 N.ar    1  UNL1       -0.2517
     26 C         141.5060  135.6999  155.0614 C.ar    1  UNL1        0.0805
     27 C         141.2744  134.2685  154.6777 C.ar    1  UNL1        0.0188
     28 C         142.2691  133.2166  155.0700 C.ar    1  UNL1        0.0054
     29 C         143.4955  133.5961  155.8459 C.ar    1  UNL1        0.0716
     30 C         143.7271  135.0276  156.2295 C.ar    1  UNL1        0.0082
     31 C         142.7323  136.0795  155.8373 C.ar    1  UNL1        0.0503
     32 C         139.4055  137.0284  154.0774 C.3     1  UNL1        0.1052
     33 C         139.1520  136.5419  152.6814 C.3     1  UNL1        0.0244
     34 C         137.7177  136.8242  152.3453 C.3     1  UNL1        0.0021
     35 C         137.0847  137.4852  153.5337 C.3     1  UNL1        0.0021
     36 C         138.1278  137.6114  154.6042 C.3     1  UNL1        0.0244
     37 C         144.4902  132.5441  156.2382 C.3     1  UNL1        0.4186
     38 F         145.4849  131.4922  156.6305 F       1  UNL1       -0.1659
     39 F         144.2272  131.8162  154.9533 F       1  UNL1       -0.1659
     40 F         144.7532  133.2720  157.5231 F       1  UNL1       -0.1659
@<TRIPOS>BOND
     1    19    20    1
     2    20    18    1
     3    18    16    1
     4    16    17    2
     5    10    16    1
     6    10    11    1
     7    11    12    1
     8    12    13    1
     9    13     6    1
    10     6     7    1
    11     7     8    1
    12     8     2    1
    13     2     3   am
    14     3     4    2
    15     3     1    1
    16     1    21    1
    17    21    23    1
    18    23    24   ar
    19    24    25   ar
    20    25    32    1
    21    32    33    1
    22    33    34    1
    23    34    35    1
    24    35    36    1
    25    25    26   ar
    26    26    27   ar
    27    27    28   ar
    28    28    29   ar
    29    29    37    1
    30    37    38    1
    31    37    39    1
    32    37    40    1
    33    29    30   ar
    34    30    31   ar
    35     8     9    1
    36    13    14    1
    37    14    15    1
    38    15    10    1
    39     9     6    1
    40    31    23   ar
    41    36    32    1
    42    31    26   ar
    43     2     5    1
    44    21    22    1
@<TRIPOS>MOLECULE
*****
 40 44 0 0 0
SMALL
GASTEIGER

@<TRIPOS>ATOM
      1 C         139.8889  138.4393  159.2564 C.3     1  UNL1        0.1747
      2 N         139.4360  138.4295  161.8146 N.am    1  UNL1       -0.3018
      3 C         140.0266  139.0867  160.6025 C.2     1  UNL1        0.2425
      4 O         140.7547  140.3913  160.7364 O.2     1  UNL1       -0.2733
      5 H         138.9581  137.5733  161.7267 H       1  UNL1        0.1495
      6 N         139.7684  139.9925  165.0644 N.3     1  UNL1       -0.2711
      7 C         140.6741  139.1952  164.1733 C.3     1  UNL1        0.0933
      8 C         139.5736  139.0769  163.1607 C.3     1  UNL1        0.1035
      9 C         138.6680  139.8742  164.0518 C.3     1  UNL1        0.0933
     10 C         140.1813  141.9346  169.1026 C.3     1  UNL1        0.0992
     11 C         140.5842  142.6822  167.8662 C.3     1  UNL1        0.0125
     12 C         140.4466  142.0348  166.5201 C.3     1  UNL1        0.0165
     13 C         139.9060  140.6399  166.4104 C.3     1  UNL1        0.0576
     14 C         139.5031  139.8923  167.6469 C.3     1  UNL1        0.0165
     15 C         139.6408  140.5397  168.9929 C.3     1  UNL1        0.0125
     16 C         140.3189  142.5819  170.4487 C.2     1  UNL1        0.3164
     17 O         139.1450  143.2800  171.0689 O.2     1  UNL1       -0.2501
     18 O         141.6305  142.5311  171.1748 O.3     1  UNL1       -0.4485
     19 C         143.7810  142.2205  169.7504 C.3     1  UNL1        0.0513
     20 C         142.8622  143.1053  170.5396 C.3     1  UNL1        0.2086
     21 N         140.1242  139.2414  158.0108 N.pl3   1  UNL1       -0.3093
     22 H         139.4011  139.7965  157.6388 H       1  UNL1        0.1487
     23 C         141.4610  139.1978  157.3319 C.ar    1  UNL1        0.1500
     24 N         142.3764  140.3655  157.1113 N.ar    1  UNL1       -0.1545
     25 N         143.5983  139.8681  156.3975 N.ar    1  UNL1       -0.2517
     26 C         143.4382  138.3930  156.1770 C.ar    1  UNL1        0.0805
     27 C         144.3245  137.3736  155.5250 C.ar    1  UNL1        0.0188
     28 C         143.8899  135.9399  155.4505 C.ar    1  UNL1        0.0054
     29 C         142.5689  135.5257  156.0280 C.ar    1  UNL1        0.0716
     30 C         141.6826  136.5451  156.6800 C.ar    1  UNL1        0.0082
     31 C         142.1172  137.9788  156.7545 C.ar    1  UNL1        0.0503
     32 C         144.7740  140.6997  155.9779 C.3     1  UNL1        0.1052
     33 C         145.6346  141.5302  156.8832 C.3     1  UNL1        0.0244
     34 C         146.6881  142.1906  156.0441 C.3     1  UNL1        0.0021
     35 C         146.4785  141.7683  154.6201 C.3     1  UNL1        0.0021
     36 C         145.2956  140.8468  154.5792 C.3     1  UNL1        0.0244
     37 C         142.1343  134.0919  155.9535 C.3     1  UNL1        0.4186
     38 F         141.6997  132.6582  155.8789 F       1  UNL1       -0.1659
     39 F         143.4603  133.6611  156.5068 F       1  UNL1       -0.1659
     40 F         140.8084  134.5226  155.4001 F       1  UNL1       -0.1659
@<TRIPOS>BOND
     1    19    20    1
     2    20    18    1
     3    18    16    1
     4    16    17    2
     5    10    16    1
     6    10    11    1
     7    11    12    1
     8    12    13    1
     9    13     6    1
    10     6     7    1
    11     7     8    1
    12     8     2    1
    13     2     3   am
    14     3     4    2
    15     3     1    1
    16     1    21    1
    17    21    23    1
    18    23    24   ar
    19    24    25   ar
    20    25    32    1
    21    32    33    1
    22    33    34    1
    23    34    35    1
    24    35    36    1
    25    25    26   ar
    26    26    27   ar
    27    27    28   ar
    28    28    29   ar
    29    29    37    1
    30    37    38    1
    31    37    39    1
    32    37    40    1
    33    29    30   ar
    34    30    31   ar
    35     8     9    1
    36    13    14    1
    37    14    15    1
    38    15    10    1
    39     9     6    1
    40    31    23   ar
    41    36    32    1
    42    31    26   ar
    43     2     5    1
    44    21    22    1
@<TRIPOS>MOLECULE
*****
 40 44 0 0 0
SMALL
GASTEIGER

@<TRIPOS>ATOM
      1 C         138.2243  140.7050  160.7597 C.3     1  UNL1        0.1747
      2 N         138.7338  141.8024  158.4606 N.am    1  UNL1       -0.3018
      3 C         138.4654  141.9316  159.9307 C.2     1  UNL1        0.2425
      4 O         138.4380  143.2874  160.5719 O.2     1  UNL1       -0.2733
      5 H         138.7517  140.9125  158.0399 H       1  UNL1        0.1495
      6 N         139.3157  144.7638  156.4592 N.3     1  UNL1       -0.2711
      7 C         138.3353  143.6294  156.4148 C.3     1  UNL1        0.0933
      8 C         138.9748  143.0290  157.6317 C.3     1  UNL1        0.1035
      9 C         139.9552  144.1634  157.6760 C.3     1  UNL1        0.0933
     10 C         140.0389  148.4437  153.9722 C.3     1  UNL1        0.0992
     11 C         139.1128  148.5050  155.1507 C.3     1  UNL1        0.0125
     12 C         138.8718  147.2783  155.9797 C.3     1  UNL1        0.0165
     13 C         139.5567  145.9904  155.6302 C.3     1  UNL1        0.0576
     14 C         140.4828  145.9292  154.4518 C.3     1  UNL1        0.0165
     15 C         140.7238  147.1558  153.6229 C.3     1  UNL1        0.0125
     16 C         140.2800  149.6703  153.1432 C.2     1  UNL1        0.3164
     17 O         141.4842  149.7487  152.2523 O.2     1  UNL1       -0.2501
     18 O         139.3168  150.8186  153.2051 O.3     1  UNL1       -0.4485
     19 C         138.4771  152.7345  154.7460 C.3     1  UNL1        0.0513
     20 C         139.6055  151.9927  154.0928 C.3     1  UNL1        0.2086
     21 N         139.3811  139.9827  161.3845 N.pl3   1  UNL1       -0.3093
     22 H         139.6798  139.1200  161.0161 H       1  UNL1        0.1487
     23 C         140.0827  140.5749  162.5707 C.ar    1  UNL1        0.1500
     24 N         141.1606  141.6172  162.5277 N.ar    1  UNL1       -0.1545
     25 N         141.5737  141.9153  163.9386 N.ar    1  UNL1       -0.2517
     26 C         140.7511  141.0572  164.8535 C.ar    1  UNL1        0.0805
     27 C         140.7220  140.9232  166.3472 C.ar    1  UNL1        0.0188
     28 C         139.7716  139.9608  166.9955 C.ar    1  UNL1        0.0054
     29 C         138.8501  139.1324  166.1501 C.ar    1  UNL1        0.0716
     30 C         138.8791  139.2665  164.6564 C.ar    1  UNL1        0.0082
     31 C         139.8296  140.2289  164.0081 C.ar    1  UNL1        0.0503
     32 C         142.6248  142.8987  164.3605 C.3     1  UNL1        0.1052
     33 C         143.7244  142.6444  165.3484 C.3     1  UNL1        0.0244
     34 C         144.5401  143.8977  165.4670 C.3     1  UNL1        0.0021
     35 C         143.9445  144.9266  164.5523 C.3     1  UNL1        0.0021
     36 C         142.7608  144.3092  163.8685 C.3     1  UNL1        0.0244
     37 C         137.8996  138.1700  166.7985 C.3     1  UNL1        0.4186
     38 F         136.9491  137.2076  167.4468 F       1  UNL1       -0.1659
     39 F         137.6978  139.1323  167.9312 F       1  UNL1       -0.1659
     40 F         138.1013  137.2077  165.6657 F       1  UNL1       -0.1659
@<TRIPOS>BOND
     1    19    20    1
     2    20    18    1
     3    18    16    1
     4    16    17    2
     5    10    16    1
     6    10    11    1
     7    11    12    1
     8    12    13    1
     9    13     6    1
    10     6     7    1
    11     7     8    1
    12     8     2    1
    13     2     3   am
    14     3     4    2
    15     3     1    1
    16     1    21    1
    17    21    23    1
    18    23    24   ar
    19    24    25   ar
    20    25    32    1
    21    32    33    1
    22    33    34    1
    23    34    35    1
    24    35    36    1
    25    25    26   ar
    26    26    27   ar
    27    27    28   ar
    28    28    29   ar
    29    29    37    1
    30    37    38    1
    31    37    39    1
    32    37    40    1
    33    29    30   ar
    34    30    31   ar
    35     8     9    1
    36    13    14    1
    37    14    15    1
    38    15    10    1
    39     9     6    1
    40    31    23   ar
    41    36    32    1
    42    31    26   ar
    43     2     5    1
    44    21    22    1
@<TRIPOS>MOLECULE
*****
 40 44 0 0 0
SMALL
GASTEIGER

@<TRIPOS>ATOM
      1 C         145.3340  141.4657  163.8943 C.3     1  UNL1        0.1747
      2 N         144.5337  139.5534  162.3284 N.am    1  UNL1       -0.3018
      3 C         144.6723  141.0172  162.6251 C.2     1  UNL1        0.2425
      4 O         144.1491  142.0324  161.6527 O.2     1  UNL1       -0.2733
      5 H         144.8771  138.8871  162.9667 H       1  UNL1        0.1495
      6 N         142.9360  138.4703  159.2644 N.3     1  UNL1       -0.2711
      7 C         143.0199  137.9354  160.6632 C.3     1  UNL1        0.0933
      8 C         143.8720  139.1048  161.0592 C.3     1  UNL1        0.1035
      9 C         143.7880  139.6396  159.6604 C.3     1  UNL1        0.0933
     10 C         140.9507  137.1246  155.4568 C.3     1  UNL1        0.0992
     11 C         140.3193  138.1979  156.2931 C.3     1  UNL1        0.0125
     12 C         140.9811  138.6465  157.5623 C.3     1  UNL1        0.0165
     13 C         142.2742  138.0218  157.9952 C.3     1  UNL1        0.0576
     14 C         142.9056  136.9485  157.1589 C.3     1  UNL1        0.0165
     15 C         142.2439  136.4999  155.8897 C.3     1  UNL1        0.0125
     16 C         140.2890  136.6760  154.1876 C.2     1  UNL1        0.3164
     17 O         140.5981  135.3232  153.6181 O.2     1  UNL1       -0.2501
     18 O         139.3181  137.5803  153.4878 O.3     1  UNL1       -0.4485
     19 C         136.8434  137.9187  154.2030 C.3     1  UNL1        0.0513
     20 C         137.8722  137.1939  153.3867 C.3     1  UNL1        0.2086
     21 N         144.8399  142.6906  164.6055 N.pl3   1  UNL1       -0.3093
     22 H         145.4109  143.4906  164.6625 H       1  UNL1        0.1487
     23 C         143.4760  142.6965  165.2296 C.ar    1  UNL1        0.1500
     24 N         143.1036  142.0700  166.5406 N.ar    1  UNL1       -0.1545
     25 N         141.6424  142.3163  166.7735 N.ar    1  UNL1       -0.2517
     26 C         141.1117  143.0951  165.6065 C.ar    1  UNL1        0.0805
     27 C         139.7431  143.6205  165.2894 C.ar    1  UNL1        0.0188
     28 C         139.5076  144.3810  164.0181 C.ar    1  UNL1        0.0054
     29 C         140.6409  144.6160  163.0639 C.ar    1  UNL1        0.0716
     30 C         142.0095  144.0905  163.3810 C.ar    1  UNL1        0.0082
     31 C         142.2450  143.3301  164.6523 C.ar    1  UNL1        0.0503
     32 C         140.8508  141.8634  167.9644 C.3     1  UNL1        0.1052
     33 C         140.5186  142.6924  169.1695 C.3     1  UNL1        0.0244
     34 C         139.7149  141.8433  170.1092 C.3     1  UNL1        0.0021
     35 C         139.5503  140.4894  169.4848 C.3     1  UNL1        0.0021
     36 C         140.2523  140.5018  168.1592 C.3     1  UNL1        0.0244
     37 C         140.4054  145.3765  161.7926 C.3     1  UNL1        0.4186
     38 F         140.1699  146.1370  160.5213 F       1  UNL1       -0.1659
     39 F         141.7792  145.0071  161.3171 F       1  UNL1       -0.1659
     40 F         139.0316  145.7459  162.2681 F       1  UNL1       -0.1659
@<TRIPOS>BOND
     1    19    20    1
     2    20    18    1
     3    18    16    1
     4    16    17    2
     5    10    16    1
     6    10    11    1
     7    11    12    1
     8    12    13    1
     9    13     6    1
    10     6     7    1
    11     7     8    1
    12     8     2    1
    13     2     3   am
    14     3     4    2
    15     3     1    1
    16     1    21    1
    17    21    23    1
    18    23    24   ar
    19    24    25   ar
    20    25    32    1
    21    32    33    1
    22    33    34    1
    23    34    35    1
    24    35    36    1
    25    25    26   ar
    26    26    27   ar
    27    27    28   ar
    28    28    29   ar
    29    29    37    1
    30    37    38    1
    31    37    39    1
    32    37    40    1
    33    29    30   ar
    34    30    31   ar
    35     8     9    1
    36    13    14    1
    37    14    15    1
    38    15    10    1
    39     9     6    1
    40    31    23   ar
    41    36    32    1
    42    31    26   ar
    43     2     5    1
    44    21    22    1
@<TRIPOS>MOLECULE
*****
 40 44 0 0 0
SMALL
GASTEIGER

@<TRIPOS>ATOM
      1 C         142.9747  137.9878  159.3236 C.3     1  UNL1        0.1747
      2 N         143.4001  138.6283  161.8053 N.am    1  UNL1       -0.3018
      3 C         142.4530  138.2501  160.7053 C.2     1  UNL1        0.2425
      4 O         140.9842  138.1343  160.9870 O.2     1  UNL1       -0.2733
      5 H         144.3641  138.7043  161.6204 H       1  UNL1        0.1495
      6 N         142.1406  139.2617  165.1409 N.3     1  UNL1       -0.2711
      7 C         142.6844  140.1141  164.0329 C.3     1  UNL1        0.0933
      8 C         142.8784  138.8906  163.1869 C.3     1  UNL1        0.1035
      9 C         142.3346  138.0383  164.2950 C.3     1  UNL1        0.0933
     10 C         140.5755  140.0488  169.2859 C.3     1  UNL1        0.0992
     11 C         139.6572  140.1556  168.1047 C.3     1  UNL1        0.0125
     12 C         140.1789  139.8933  166.7230 C.3     1  UNL1        0.0165
     13 C         141.6189  139.5241  166.5226 C.3     1  UNL1        0.0576
     14 C         142.5371  139.4172  167.7038 C.3     1  UNL1        0.0165
     15 C         142.0155  139.6795  169.0854 C.3     1  UNL1        0.0125
     16 C         140.0539  140.3111  170.6676 C.2     1  UNL1        0.3164
     17 O         139.2851  139.2472  171.3937 O.2     1  UNL1       -0.2501
     18 O         140.3011  141.6374  171.3233 O.3     1  UNL1       -0.4485
     19 C         140.5526  143.6501  169.6998 C.3     1  UNL1        0.0513
     20 C         139.7479  142.8908  170.7126 C.3     1  UNL1        0.2086
     21 N         142.0175  137.7694  158.1894 N.pl3   1  UNL1       -0.3093
     22 H         141.2622  138.3867  158.0570 H       1  UNL1        0.1487
     23 C         142.2114  136.6104  157.2571 C.ar    1  UNL1        0.1500
     24 N         143.0615  135.4023  157.5172 N.ar    1  UNL1       -0.1545
     25 N         142.9645  134.5013  156.3218 N.ar    1  UNL1       -0.2517
     26 C         142.0546  135.1527  155.3230 C.ar    1  UNL1        0.0805
     27 C         141.5897  134.7272  153.9618 C.ar    1  UNL1        0.0188
     28 C         140.6593  135.6053  153.1787 C.ar    1  UNL1        0.0054
     29 C         140.1938  136.9088  153.7567 C.ar    1  UNL1        0.0716
     30 C         140.6587  137.3342  155.1179 C.ar    1  UNL1        0.0082
     31 C         141.5891  136.4562  155.9010 C.ar    1  UNL1        0.0503
     32 C         143.6562  133.1808  156.1546 C.3     1  UNL1        0.1052
     33 C         144.6986  132.6094  157.0694 C.3     1  UNL1        0.0244
     34 C         145.1135  131.2753  156.5234 C.3     1  UNL1        0.0021
     35 C         144.3275  131.0223  155.2712 C.3     1  UNL1        0.0021
     36 C         143.4268  132.1999  155.0432 C.3     1  UNL1        0.0244
     37 C         139.2634  137.7869  152.9735 C.3     1  UNL1        0.4186
     38 F         138.3330  138.6649  152.1903 F       1  UNL1       -0.1659
     39 F         140.2501  138.9131  153.0639 F       1  UNL1       -0.1659
     40 F         138.2767  136.6607  152.8831 F       1  UNL1       -0.1659
@<TRIPOS>BOND
     1    19    20    1
     2    20    18    1
     3    18    16    1
     4    16    17    2
     5    10    16    1
     6    10    11    1
     7    11    12    1
     8    12    13    1
     9    13     6    1
    10     6     7    1
    11     7     8    1
    12     8     2    1
    13     2     3   am
    14     3     4    2
    15     3     1    1
    16     1    21    1
    17    21    23    1
    18    23    24   ar
    19    24    25   ar
    20    25    32    1
    21    32    33    1
    22    33    34    1
    23    34    35    1
    24    35    36    1
    25    25    26   ar
    26    26    27   ar
    27    27    28   ar
    28    28    29   ar
    29    29    37    1
    30    37    38    1
    31    37    39    1
    32    37    40    1
    33    29    30   ar
    34    30    31   ar
    35     8     9    1
    36    13    14    1
    37    14    15    1
    38    15    10    1
    39     9     6    1
    40    31    23   ar
    41    36    32    1
    42    31    26   ar
    43     2     5    1
    44    21    22    1
@<TRIPOS>MOLECULE
*****
 40 44 0 0 0
SMALL
GASTEIGER

@<TRIPOS>ATOM
      1 C         138.8023  139.7520  157.6523 C.3     1  UNL1        0.1747
      2 N         137.9750  139.6052  160.1107 N.am    1  UNL1       -0.3018
      3 C         139.0710  139.8755  159.1229 C.2     1  UNL1        0.2425
      4 O         140.4355  140.2693  159.6056 O.2     1  UNL1       -0.2733
      5 H         137.0795  139.3468  159.7939 H       1  UNL1        0.1495
      6 N         138.6236  139.9034  163.6610 N.3     1  UNL1       -0.2711
      7 C         139.0257  138.9367  162.5869 C.3     1  UNL1        0.0933
      8 C         138.2437  139.7288  161.5813 C.3     1  UNL1        0.1035
      9 C         137.8417  140.6955  162.6554 C.3     1  UNL1        0.0933
     10 C         139.4295  140.2741  168.0727 C.3     1  UNL1        0.0992
     11 C         140.1853  141.1276  167.0980 C.3     1  UNL1        0.0125
     12 C         139.9167  141.0040  165.6274 C.3     1  UNL1        0.0165
     13 C         138.8923  140.0270  165.1316 C.3     1  UNL1        0.0576
     14 C         138.1364  139.1735  166.1064 C.3     1  UNL1        0.0165
     15 C         138.4050  139.2970  167.5769 C.3     1  UNL1        0.0125
     16 C         139.6980  140.3975  169.5433 C.2     1  UNL1        0.3164
     17 O         140.6179  139.4263  170.2220 O.2     1  UNL1       -0.2501
     18 O         139.0467  141.4923  170.3353 O.3     1  UNL1       -0.4485
     19 C         140.4351  143.5814  169.6584 C.3     1  UNL1        0.0513
     20 C         139.8339  142.7096  170.7207 C.3     1  UNL1        0.2086
     21 N         139.4164  138.6294  156.8694 N.pl3   1  UNL1       -0.3093
     22 H         138.8757  137.8418  156.6314 H       1  UNL1        0.1487
     23 C         140.8543  138.7067  156.4493 C.ar    1  UNL1        0.1500
     24 N         141.6385  139.9641  156.2168 N.ar    1  UNL1       -0.1545
     25 N         143.0292  139.5747  155.8116 N.ar    1  UNL1       -0.2517
     26 C         143.1046  138.0767  155.7937 C.ar    1  UNL1        0.0805
     27 C         144.2235  137.1318  155.4695 C.ar    1  UNL1        0.0188
     28 C         143.9982  135.6505  155.5394 C.ar    1  UNL1        0.0054
     29 C         142.6540  135.1141  155.9335 C.ar    1  UNL1        0.0716
     30 C         141.5351  136.0589  156.2577 C.ar    1  UNL1        0.0082
     31 C         141.7604  137.5402  156.1878 C.ar    1  UNL1        0.0503
     32 C         144.1482  140.5177  155.4822 C.3     1  UNL1        0.1052
     33 C         144.1394  141.5508  154.3948 C.3     1  UNL1        0.0244
     34 C         145.4582  142.2649  154.4229 C.3     1  UNL1        0.0021
     35 C         146.2822  141.6729  155.5278 C.3     1  UNL1        0.0021
     36 C         145.4726  140.5931  156.1824 C.3     1  UNL1        0.0244
     37 C         142.4288  133.6327  156.0033 C.3     1  UNL1        0.4186
     38 F         142.2035  132.1513  156.0731 F       1  UNL1       -0.1659
     39 F         142.8722  133.6328  157.4362 F       1  UNL1       -0.1659
     40 F         141.9853  133.6326  154.5704 F       1  UNL1       -0.1659
@<TRIPOS>BOND
     1    19    20    1
     2    20    18    1
     3    18    16    1
     4    16    17    2
     5    10    16    1
     6    10    11    1
     7    11    12    1
     8    12    13    1
     9    13     6    1
    10     6     7    1
    11     7     8    1
    12     8     2    1
    13     2     3   am
    14     3     4    2
    15     3     1    1
    16     1    21    1
    17    21    23    1
    18    23    24   ar
    19    24    25   ar
    20    25    32    1
    21    32    33    1
    22    33    34    1
    23    34    35    1
    24    35    36    1
    25    25    26   ar
    26    26    27   ar
    27    27    28   ar
    28    28    29   ar
    29    29    37    1
    30    37    38    1
    31    37    39    1
    32    37    40    1
    33    29    30   ar
    34    30    31   ar
    35     8     9    1
    36    13    14    1
    37    14    15    1
    38    15    10    1
    39     9     6    1
    40    31    23   ar
    41    36    32    1
    42    31    26   ar
    43     2     5    1
    44    21    22    1
@<TRIPOS>MOLECULE
*****
 40 44 0 0 0
SMALL
GASTEIGER

@<TRIPOS>ATOM
      1 C         138.9823  138.0919  162.6639 C.3     1  UNL1        0.1747
      2 N         141.1484  139.2135  161.7694 N.am    1  UNL1       -0.3018
      3 C         139.8607  138.4879  161.5142 C.2     1  UNL1        0.2425
      4 O         139.4512  138.1581  160.1093 O.2     1  UNL1       -0.2733
      5 H         141.4171  139.4299  162.6915 H       1  UNL1        0.1495
      6 N         143.2689  140.1692  158.9938 N.3     1  UNL1       -0.2711
      7 C         143.4113  139.2486  160.1694 C.3     1  UNL1        0.0933
      8 C         142.0267  139.6094  160.6197 C.3     1  UNL1        0.1035
      9 C         141.8843  140.5300  159.4441 C.3     1  UNL1        0.0933
     10 C         145.9038  141.3570  155.5446 C.3     1  UNL1        0.0992
     11 C         145.8022  142.2431  156.7506 C.3     1  UNL1        0.0125
     12 C         144.9238  141.8472  157.9003 C.3     1  UNL1        0.0165
     13 C         144.1472  140.5651  157.8441 C.3     1  UNL1        0.0576
     14 C         144.2489  139.6790  156.6381 C.3     1  UNL1        0.0165
     15 C         145.1271  140.0749  155.4884 C.3     1  UNL1        0.0125
     16 C         146.7821  141.7527  154.3949 C.2     1  UNL1        0.3164
     17 O         146.3473  141.4711  152.9872 O.2     1  UNL1       -0.2501
     18 O         148.0953  142.4303  154.6528 O.3     1  UNL1       -0.4485
     19 C         150.5812  141.7014  154.8505 C.3     1  UNL1        0.0513
     20 C         149.1816  141.7047  155.3900 C.3     1  UNL1        0.2086
     21 N         138.1601  139.1283  163.3712 N.pl3   1  UNL1       -0.3093
     22 H         137.2472  139.3278  163.0615 H       1  UNL1        0.1487
     23 C         138.7290  139.8605  164.5503 C.ar    1  UNL1        0.1500
     24 N         139.0846  139.2555  165.8760 N.ar    1  UNL1       -0.1545
     25 N         139.6175  140.3474  166.7557 N.ar    1  UNL1       -0.2517
     26 C         139.5914  141.6271  165.9736 C.ar    1  UNL1        0.0805
     27 C         139.9966  143.0275  166.3265 C.ar    1  UNL1        0.0188
     28 C         139.8527  144.1270  165.3164 C.ar    1  UNL1        0.0054
     29 C         139.3036  143.8261  163.9534 C.ar    1  UNL1        0.0716
     30 C         138.8984  142.4257  163.6004 C.ar    1  UNL1        0.0082
     31 C         139.0422  141.3262  164.6106 C.ar    1  UNL1        0.0503
     32 C         140.0932  140.1876  168.1693 C.3     1  UNL1        0.1052
     33 C         139.2615  140.3655  169.4048 C.3     1  UNL1        0.0244
     34 C         140.1383  140.1097  170.5947 C.3     1  UNL1        0.0021
     35 C         141.5119  139.7737  170.0945 C.3     1  UNL1        0.0021
     36 C         141.4841  139.8218  168.5955 C.3     1  UNL1        0.0244
     37 C         139.1597  144.9256  162.9432 C.3     1  UNL1        0.4186
     38 F         139.0158  146.0251  161.9331 F       1  UNL1       -0.1659
     39 F         140.6369  145.1782  163.0077 F       1  UNL1       -0.1659
     40 F         137.6826  144.6730  162.8787 F       1  UNL1       -0.1659
@<TRIPOS>BOND
     1    19    20    1
     2    20    18    1
     3    18    16    1
     4    16    17    2
     5    10    16    1
     6    10    11    1
     7    11    12    1
     8    12    13    1
     9    13     6    1
    10     6     7    1
    11     7     8    1
    12     8     2    1
    13     2     3   am
    14     3     4    2
    15     3     1    1
    16     1    21    1
    17    21    23    1
    18    23    24   ar
    19    24    25   ar
    20    25    32    1
    21    32    33    1
    22    33    34    1
    23    34    35    1
    24    35    36    1
    25    25    26   ar
    26    26    27   ar
    27    27    28   ar
    28    28    29   ar
    29    29    37    1
    30    37    38    1
    31    37    39    1
    32    37    40    1
    33    29    30   ar
    34    30    31   ar
    35     8     9    1
    36    13    14    1
    37    14    15    1
    38    15    10    1
    39     9     6    1
    40    31    23   ar
    41    36    32    1
    42    31    26   ar
    43     2     5    1
    44    21    22    1
@<TRIPOS>MOLECULE
*****
 40 44 0 0 0
SMALL
GASTEIGER

@<TRIPOS>ATOM
      1 C         138.9081  142.8682  159.4394 C.3     1  UNL1        0.1747
      2 N         140.6994  141.1711  158.6267 N.am    1  UNL1       -0.3018
      3 C         139.2637  141.5211  158.8837 C.2     1  UNL1        0.2425
      4 O         138.1836  140.5240  158.5851 O.2     1  UNL1       -0.2733
      5 H         141.4083  141.8255  158.8227 H       1  UNL1        0.1495
      6 N         141.5580  137.9188  157.2852 N.3     1  UNL1       -0.2711
      7 C         140.6874  138.4083  158.4044 C.3     1  UNL1        0.0933
      8 C         141.0551  139.8240  158.0710 C.3     1  UNL1        0.1035
      9 C         141.9255  139.3343  156.9519 C.3     1  UNL1        0.0933
     10 C         142.6248  133.8773  155.6183 C.3     1  UNL1        0.0992
     11 C         143.4515  134.4777  156.7165 C.3     1  UNL1        0.0125
     12 C         143.0959  135.8248  157.2722 C.3     1  UNL1        0.0165
     13 C         141.9136  136.5716  156.7296 C.3     1  UNL1        0.0576
     14 C         141.0869  135.9713  155.6313 C.3     1  UNL1        0.0165
     15 C         141.4425  134.6242  155.0757 C.3     1  UNL1        0.0125
     16 C         142.9804  132.5303  155.0625 C.2     1  UNL1        0.3164
     17 O         141.9970  131.7887  154.2063 O.2     1  UNL1       -0.2501
     18 O         144.3194  131.9246  155.3631 O.3     1  UNL1       -0.4485
     19 C         144.8071  131.1303  157.7882 C.3     1  UNL1        0.0513
     20 C         144.4333  130.8182  156.3695 C.3     1  UNL1        0.2086
     21 N         138.1853  142.9720  160.7497 N.pl3   1  UNL1       -0.3093
     22 H         137.3764  143.5284  160.8230 H       1  UNL1        0.1487
     23 C         138.6949  142.2281  161.9484 C.ar    1  UNL1        0.1500
     24 N         138.0397  141.0440  162.5955 N.ar    1  UNL1       -0.1545
     25 N         138.8891  140.6218  163.7574 N.ar    1  UNL1       -0.2517
     26 C         140.0693  141.5450  163.8285 C.ar    1  UNL1        0.0805
     27 C         141.2377  141.6098  164.7669 C.ar    1  UNL1        0.0188
     28 C         142.2861  142.6674  164.5872 C.ar    1  UNL1        0.0054
     29 C         142.1661  143.6602  163.4691 C.ar    1  UNL1        0.0716
     30 C         140.9977  143.5953  162.5308 C.ar    1  UNL1        0.0082
     31 C         139.9493  142.5377  162.7105 C.ar    1  UNL1        0.0503
     32 C         138.6078  139.4774  164.6854 C.3     1  UNL1        0.1052
     33 C         138.0383  139.5837  166.0689 C.3     1  UNL1        0.0244
     34 C         137.9251  138.1977  166.6314 C.3     1  UNL1        0.0021
     35 C         138.4248  137.2349  165.5954 C.3     1  UNL1        0.0021
     36 C         138.8467  138.0258  164.3927 C.3     1  UNL1        0.0244
     37 C         143.2145  144.7178  163.2894 C.3     1  UNL1        0.4186
     38 F         144.2630  145.7753  163.1098 F       1  UNL1       -0.1659
     39 F         142.1777  145.7813  163.4987 F       1  UNL1       -0.1659
     40 F         144.2514  143.6543  163.0801 F       1  UNL1       -0.1659
@<TRIPOS>BOND
     1    19    20    1
     2    20    18    1
     3    18    16    1
     4    16    17    2
     5    10    16    1
     6    10    11    1
     7    11    12    1
     8    12    13    1
     9    13     6    1
    10     6     7    1
    11     7     8    1
    12     8     2    1
    13     2     3   am
    14     3     4    2
    15     3     1    1
    16     1    21    1
    17    21    23    1
    18    23    24   ar
    19    24    25   ar
    20    25    32    1
    21    32    33    1
    22    33    34    1
    23    34    35    1
    24    35    36    1
    25    25    26   ar
    26    26    27   ar
    27    27    28   ar
    28    28    29   ar
    29    29    37    1
    30    37    38    1
    31    37    39    1
    32    37    40    1
    33    29    30   ar
    34    30    31   ar
    35     8     9    1
    36    13    14    1
    37    14    15    1
    38    15    10    1
    39     9     6    1
    40    31    23   ar
    41    36    32    1
    42    31    26   ar
    43     2     5    1
    44    21    22    1
