@<TRIPOS>MOLECULE
*****
 34 37 0 0 0
SMALL
GASTEIGER

@<TRIPOS>ATOM
      1 C         142.6198  141.2652  166.9716 C.3     1  UNL1        0.1219
      2 C         142.3390  141.9655  165.6751 C.ar    1  UNL1       -0.0121
      3 C         143.4624  142.5886  164.9007 C.ar    1  UNL1       -0.0037
      4 C         143.1816  143.2888  163.6042 C.ar    1  UNL1        0.0012
      5 C         141.7775  143.3659  163.0822 C.ar    1  UNL1        0.0177
      6 C         140.6542  142.7428  163.8566 C.ar    1  UNL1        0.0012
      7 C         140.9349  142.0426  165.1531 C.ar    1  UNL1       -0.0037
      8 C         141.4967  144.0662  161.7857 C.ar    1  UNL1        0.0845
      9 C         140.4460  145.1347  161.7226 C.ar    1  UNL1        0.0399
     10 C         140.1652  145.8350  160.4261 C.ar    1  UNL1        0.1036
     11 N         140.9352  145.4665  159.1927 N.ar    1  UNL1       -0.2106
     12 N         140.8790  145.9789  157.7840 N.ar    1  UNL1       -0.1621
     13 C         141.8951  145.2270  156.9765 C.ar    1  UNL1        0.1237
     14 C         142.5792  144.2498  157.8861 C.ar    1  UNL1        0.0612
     15 C         141.9859  144.3979  159.2558 C.ar    1  UNL1        0.1653
     16 N         142.2667  143.6977  160.5523 N.ar    1  UNL1       -0.2264
     17 C         141.3945  142.8830  170.3821 C.3     1  UNL1        0.1149
     18 N         141.3872  142.1084  169.0976 N.am    1  UNL1       -0.2757
     19 C         140.1401  141.4024  168.6545 C.3     1  UNL1        0.1149
     20 C         142.6270  142.0398  168.2561 C.2     1  UNL1        0.2312
     21 O         143.8741  142.7458  168.6992 O.2     1  UNL1       -0.2745
     22 C         142.8933  139.7905  166.9835 C.3     1  UNL1        0.1413
     23 N         142.9470  139.0482  168.2860 N.3     1  UNL1       -0.3144
     24 H         142.7766  139.6970  169.0544 H       1  UNL1        0.1193
     25 H         143.8676  138.6234  168.3975 H       1  UNL1        0.1193
     26 C         143.1131  139.0580  165.6932 C.2     1  UNL1        0.2406
     27 O         144.4999  138.9111  165.1408 O.2     1  UNL1       -0.2734
     28 N         141.9459  138.4722  164.9551 N.am    1  UNL1       -0.2730
     29 C         142.0104  137.7172  163.6606 C.3     1  UNL1        0.0993
     30 C         140.6137  137.3169  163.2874 C.3     1  UNL1        0.0898
     31 C         139.6862  137.8246  164.3513 C.3     1  UNL1        0.2835
     32 F         138.6224  137.1890  163.5060 F       1  UNL1       -0.2024
     33 F         138.5362  138.1994  165.2384 F       1  UNL1       -0.2024
     34 C         140.5095  138.5386  165.3820 C.3     1  UNL1        0.1601
@<TRIPOS>BOND
     1    17    18    1
     2    18    19    1
     3    18    20   am
     4    20    21    2
     5     1    20    1
     6     1     2    1
     7     2     3   ar
     8     3     4   ar
     9     4     5   ar
    10     5     8    1
    11     8     9   ar
    12     9    10   ar
    13    10    11   ar
    14    11    12   ar
    15    12    13   ar
    16    13    14   ar
    17    14    15   ar
    18    15    16   ar
    19     5     6   ar
    20     6     7   ar
    21     1    22    1
    22    22    23    1
    23    22    26    1
    24    26    27    2
    25    26    28   am
    26    28    29    1
    27    29    30    1
    28    30    31    1
    29    31    32    1
    30    31    33    1
    31    31    34    1
    32     7     2   ar
    33    34    28    1
    34    16     8   ar
    35    15    11   ar
    36    23    24    1
    37    23    25    1
@<TRIPOS>MOLECULE
*****
 34 37 0 0 0
SMALL
GASTEIGER

@<TRIPOS>ATOM
      1 C         141.0624  139.4545  159.6164 C.3     1  UNL1        0.1219
      2 C         140.6348  139.4577  161.0542 C.ar    1  UNL1       -0.0121
      3 C         140.3431  140.7557  161.7470 C.ar    1  UNL1       -0.0037
      4 C         139.9155  140.7588  163.1848 C.ar    1  UNL1        0.0012
      5 C         139.7797  139.4640  163.9297 C.ar    1  UNL1        0.0177
      6 C         140.0714  138.1660  163.2368 C.ar    1  UNL1        0.0012
      7 C         140.4990  138.1628  161.7991 C.ar    1  UNL1       -0.0037
      8 C         139.3521  139.4670  165.3675 C.ar    1  UNL1        0.0845
      9 C         138.1452  138.6845  165.7927 C.ar    1  UNL1        0.0399
     10 C         137.7176  138.6876  167.2305 C.ar    1  UNL1        0.1036
     11 N         138.4970  139.4733  168.2430 N.ar    1  UNL1       -0.2106
     12 N         138.3172  139.6645  169.7199 N.ar    1  UNL1       -0.1621
     13 C         139.4131  140.5653  170.2074 C.ar    1  UNL1        0.1237
     14 C         140.2701  140.9308  169.0318 C.ar    1  UNL1        0.0612
     15 C         139.7039  140.2558  167.8178 C.ar    1  UNL1        0.1653
     16 N         140.1315  140.2527  166.3800 N.ar    1  UNL1       -0.2264
     17 C         138.4094  140.4380  156.8336 C.3     1  UNL1        0.1149
     18 N         139.4352  140.5624  157.9209 N.am    1  UNL1       -0.2757
     19 C         139.8597  141.9190  158.4000 C.3     1  UNL1        0.1149
     20 C         140.0366  139.3302  158.5291 C.2     1  UNL1        0.2312
     21 O         139.6121  137.9736  158.0501 O.2     1  UNL1       -0.2745
     22 C         142.5159  139.5757  159.2660 C.3     1  UNL1        0.1413
     23 N         143.2200  138.4404  158.5839 N.3     1  UNL1       -0.3144
     24 H         142.5643  137.6732  158.4363 H       1  UNL1        0.1193
     25 H         143.9927  138.1198  159.1675 H       1  UNL1        0.1193
     26 C         143.2650  140.8321  159.5976 C.2     1  UNL1        0.2406
     27 O         143.2827  141.9738  158.6248 O.2     1  UNL1       -0.2734
     28 N         143.9968  140.9470  160.9020 N.am    1  UNL1       -0.2730
     29 C         144.7850  142.1346  161.3692 C.3     1  UNL1        0.0993
     30 C         145.3441  141.8159  162.7242 C.3     1  UNL1        0.0898
     31 C         144.9013  140.4314  163.0943 C.3     1  UNL1        0.2835
     32 F         145.6753  140.6903  164.3529 F       1  UNL1       -0.2024
     33 F         144.6204  139.1010  163.7277 F       1  UNL1       -0.2024
     34 C         144.0687  139.8943  161.9682 C.3     1  UNL1        0.1601
@<TRIPOS>BOND
     1    17    18    1
     2    18    19    1
     3    18    20   am
     4    20    21    2
     5     1    20    1
     6     1     2    1
     7     2     3   ar
     8     3     4   ar
     9     4     5   ar
    10     5     8    1
    11     8     9   ar
    12     9    10   ar
    13    10    11   ar
    14    11    12   ar
    15    12    13   ar
    16    13    14   ar
    17    14    15   ar
    18    15    16   ar
    19     5     6   ar
    20     6     7   ar
    21     1    22    1
    22    22    23    1
    23    22    26    1
    24    26    27    2
    25    26    28   am
    26    28    29    1
    27    29    30    1
    28    30    31    1
    29    31    32    1
    30    31    33    1
    31    31    34    1
    32     7     2   ar
    33    34    28    1
    34    16     8   ar
    35    15    11   ar
    36    23    24    1
    37    23    25    1
@<TRIPOS>MOLECULE
*****
 34 37 0 0 0
SMALL
GASTEIGER

@<TRIPOS>ATOM
      1 C         143.4754  141.0026  161.1310 C.3     1  UNL1        0.1219
      2 C         142.8577  141.0645  162.4965 C.ar    1  UNL1       -0.0121
      3 C         143.1748  140.0067  163.5117 C.ar    1  UNL1       -0.0037
      4 C         142.5570  140.0686  164.8772 C.ar    1  UNL1        0.0012
      5 C         141.6223  141.1882  165.2275 C.ar    1  UNL1        0.0177
      6 C         141.3052  142.2459  164.2123 C.ar    1  UNL1        0.0012
      7 C         141.9229  142.1841  162.8468 C.ar    1  UNL1       -0.0037
      8 C         141.0045  141.2501  166.5930 C.ar    1  UNL1        0.0845
      9 C         140.3020  140.0492  167.1535 C.ar    1  UNL1        0.0399
     10 C         139.6842  140.1111  168.5191 C.ar    1  UNL1        0.1036
     11 N         139.7690  141.3740  169.3240 N.ar    1  UNL1       -0.2106
     12 N         139.2593  141.7303  170.6890 N.ar    1  UNL1       -0.1621
     13 C         139.6469  143.1515  170.9721 C.ar    1  UNL1        0.1237
     14 C         140.3961  143.6735  169.7820 C.ar    1  UNL1        0.0612
     15 C         140.4716  142.5749  168.7635 C.ar    1  UNL1        0.1653
     16 N         141.0894  142.5129  167.3980 N.ar    1  UNL1       -0.2264
     17 C         141.9275  138.3130  158.6572 C.3     1  UNL1        0.1149
     18 N         142.0771  139.5497  159.4928 N.am    1  UNL1       -0.2757
     19 C         140.9782  140.5701  159.5258 C.3     1  UNL1        0.1149
     20 C         143.3257  139.7659  160.2954 C.2     1  UNL1        0.2312
     21 O         144.4246  138.7455  160.2624 O.2     1  UNL1       -0.2745
     22 C         144.2429  142.1774  160.6011 C.3     1  UNL1        0.1413
     23 N         145.2291  142.8874  161.4806 N.3     1  UNL1       -0.3144
     24 H         145.2495  142.4414  162.3977 H       1  UNL1        0.1193
     25 H         144.9518  143.8636  161.5834 H       1  UNL1        0.1193
     26 C         144.0241  142.6423  159.1919 C.2     1  UNL1        0.2406
     27 O         144.9070  142.1367  158.0897 O.2     1  UNL1       -0.2734
     28 N         142.9224  143.6129  158.8848 N.am    1  UNL1       -0.2730
     29 C         142.5851  144.1643  157.5312 C.3     1  UNL1        0.0993
     30 C         141.4188  145.0946  157.6872 C.3     1  UNL1        0.0898
     31 C         141.0353  145.1181  159.1372 C.3     1  UNL1        0.2835
     32 F         139.9798  146.0809  158.6802 F       1  UNL1       -0.2024
     33 F         140.4312  145.3430  160.4916 F       1  UNL1       -0.2024
     34 C         141.9646  144.2024  159.8773 C.3     1  UNL1        0.1601
@<TRIPOS>BOND
     1    17    18    1
     2    18    19    1
     3    18    20   am
     4    20    21    2
     5     1    20    1
     6     1     2    1
     7     2     3   ar
     8     3     4   ar
     9     4     5   ar
    10     5     8    1
    11     8     9   ar
    12     9    10   ar
    13    10    11   ar
    14    11    12   ar
    15    12    13   ar
    16    13    14   ar
    17    14    15   ar
    18    15    16   ar
    19     5     6   ar
    20     6     7   ar
    21     1    22    1
    22    22    23    1
    23    22    26    1
    24    26    27    2
    25    26    28   am
    26    28    29    1
    27    29    30    1
    28    30    31    1
    29    31    32    1
    30    31    33    1
    31    31    34    1
    32     7     2   ar
    33    34    28    1
    34    16     8   ar
    35    15    11   ar
    36    23    24    1
    37    23    25    1
@<TRIPOS>MOLECULE
*****
 34 37 0 0 0
SMALL
GASTEIGER

@<TRIPOS>ATOM
      1 C         140.2639  141.7205  167.5360 C.3     1  UNL1        0.1219
      2 C         140.2496  142.2239  166.1231 C.ar    1  UNL1       -0.0121
      3 C         138.9456  142.5426  165.4537 C.ar    1  UNL1       -0.0037
      4 C         138.9313  143.0460  164.0407 C.ar    1  UNL1        0.0012
      5 C         140.2208  143.2306  163.2972 C.ar    1  UNL1        0.0177
      6 C         141.5248  142.9118  163.9665 C.ar    1  UNL1        0.0012
      7 C         141.5392  142.4085  165.3795 C.ar    1  UNL1       -0.0037
      8 C         140.2065  143.7340  161.8842 C.ar    1  UNL1        0.0845
      9 C         140.7799  145.0821  161.5625 C.ar    1  UNL1        0.0399
     10 C         140.7656  145.5855  160.1494 C.ar    1  UNL1        0.1036
     11 N         140.1779  144.7406  159.0583 N.ar    1  UNL1       -0.2106
     12 N         140.0245  144.9697  157.5838 N.ar    1  UNL1       -0.1621
     13 C         139.3563  143.7630  156.9943 C.ar    1  UNL1        0.1237
     14 C         139.0967  142.7882  158.1044 C.ar    1  UNL1        0.0612
     15 C         139.6045  143.3924  159.3800 C.ar    1  UNL1        0.1653
     16 N         139.6188  142.8891  160.7930 N.ar    1  UNL1       -0.2264
     17 C         142.7370  143.1392  170.2967 C.3     1  UNL1        0.1149
     18 N         142.1785  142.2811  169.2004 N.am    1  UNL1       -0.2757
     19 C         142.9759  141.1255  168.6723 C.3     1  UNL1        0.1149
     20 C         140.8225  142.5786  168.6322 C.2     1  UNL1        0.2312
     21 O         140.0251  143.7341  169.1603 O.2     1  UNL1       -0.2745
     22 C         139.7197  140.3591  167.8527 C.3     1  UNL1        0.1413
     23 N         139.7386  139.8537  169.2649 N.3     1  UNL1       -0.3144
     24 H         140.1528  140.5600  169.8733 H       1  UNL1        0.1193
     25 H         140.2913  138.9978  169.3124 H       1  UNL1        0.1193
     26 C         139.1567  139.5030  166.7573 C.2     1  UNL1        0.2406
     27 O         137.6777  139.2666  166.6751 O.2     1  UNL1       -0.2734
     28 N         140.0727  138.8831  165.7439 N.am    1  UNL1       -0.2730
     29 C         139.6572  138.0086  164.5982 C.3     1  UNL1        0.0993
     30 C         140.8926  137.6140  163.8445 C.3     1  UNL1        0.0898
     31 C         142.0716  138.2447  164.5244 C.3     1  UNL1        0.2835
     32 F         142.8593  137.5623  163.4455 F       1  UNL1       -0.2024
     33 F         143.4152  138.7327  164.9787 F       1  UNL1       -0.2024
     34 C         141.5648  139.0290  165.6983 C.3     1  UNL1        0.1601
@<TRIPOS>BOND
     1    17    18    1
     2    18    19    1
     3    18    20   am
     4    20    21    2
     5     1    20    1
     6     1     2    1
     7     2     3   ar
     8     3     4   ar
     9     4     5   ar
    10     5     8    1
    11     8     9   ar
    12     9    10   ar
    13    10    11   ar
    14    11    12   ar
    15    12    13   ar
    16    13    14   ar
    17    14    15   ar
    18    15    16   ar
    19     5     6   ar
    20     6     7   ar
    21     1    22    1
    22    22    23    1
    23    22    26    1
    24    26    27    2
    25    26    28   am
    26    28    29    1
    27    29    30    1
    28    30    31    1
    29    31    32    1
    30    31    33    1
    31    31    34    1
    32     7     2   ar
    33    34    28    1
    34    16     8   ar
    35    15    11   ar
    36    23    24    1
    37    23    25    1
@<TRIPOS>MOLECULE
*****
 34 37 0 0 0
SMALL
GASTEIGER

@<TRIPOS>ATOM
      1 C         142.4714  142.9334  161.2139 C.3     1  UNL1        0.1219
      2 C         142.4274  142.6757  162.6910 C.ar    1  UNL1       -0.0121
      3 C         143.1822  143.5685  163.6308 C.ar    1  UNL1       -0.0037
      4 C         143.1381  143.3107  165.1079 C.ar    1  UNL1        0.0012
      5 C         142.3393  142.1604  165.6451 C.ar    1  UNL1        0.0177
      6 C         141.5845  141.2677  164.7052 C.ar    1  UNL1        0.0012
      7 C         141.6286  141.5254  163.2282 C.ar    1  UNL1       -0.0037
      8 C         142.2952  141.9027  167.1222 C.ar    1  UNL1        0.0845
      9 C         143.4174  142.3728  167.9993 C.ar    1  UNL1        0.0399
     10 C         143.3733  142.1151  169.4764 C.ar    1  UNL1        0.1036
     11 N         142.2069  141.3873  170.0762 N.ar    1  UNL1       -0.2106
     12 N         141.8891  140.9914  171.4877 N.ar    1  UNL1       -0.1621
     13 C         140.5703  140.2766  171.4827 C.ar    1  UNL1        0.1237
     14 C         140.0732  140.2307  170.0683 C.ar    1  UNL1        0.0612
     15 C         141.0847  140.9172  169.1990 C.ar    1  UNL1        0.1653
     16 N         141.1288  141.1749  167.7219 N.ar    1  UNL1       -0.2264
     17 C         144.0951  140.3032  158.7248 C.3     1  UNL1        0.1149
     18 N         143.0846  141.0092  159.5795 N.am    1  UNL1       -0.2757
     19 C         141.6767  140.4970  159.6543 C.3     1  UNL1        0.1149
     20 C         143.4819  142.2274  160.3593 C.2     1  UNL1        0.2312
     21 O         144.8898  142.7396  160.2844 O.2     1  UNL1       -0.2745
     22 C         141.5050  143.8970  160.5916 C.3     1  UNL1        0.1413
     23 N         142.0124  145.1342  159.9117 N.3     1  UNL1       -0.3144
     24 H         143.0306  145.1590  159.9667 H       1  UNL1        0.1193
     25 H         141.6268  145.9581  160.3730 H       1  UNL1        0.1193
     26 C         140.0313  143.6237  160.6491 C.2     1  UNL1        0.2406
     27 O         139.3237  143.0699  159.4481 O.2     1  UNL1       -0.2734
     28 N         139.2650  143.9041  161.9078 N.am    1  UNL1       -0.2730
     29 C         137.7958  143.6826  162.1135 C.3     1  UNL1        0.0993
     30 C         137.4562  144.0969  163.5146 C.3     1  UNL1        0.0898
     31 C         138.7156  144.5745  164.1748 C.3     1  UNL1        0.2835
     32 F         137.8219  144.8035  165.3575 F       1  UNL1       -0.2024
     33 F         139.7881  145.0999  165.0823 F       1  UNL1       -0.2024
     34 C         139.8335  144.4554  163.1818 C.3     1  UNL1        0.1601
@<TRIPOS>BOND
     1    17    18    1
     2    18    19    1
     3    18    20   am
     4    20    21    2
     5     1    20    1
     6     1     2    1
     7     2     3   ar
     8     3     4   ar
     9     4     5   ar
    10     5     8    1
    11     8     9   ar
    12     9    10   ar
    13    10    11   ar
    14    11    12   ar
    15    12    13   ar
    16    13    14   ar
    17    14    15   ar
    18    15    16   ar
    19     5     6   ar
    20     6     7   ar
    21     1    22    1
    22    22    23    1
    23    22    26    1
    24    26    27    2
    25    26    28   am
    26    28    29    1
    27    29    30    1
    28    30    31    1
    29    31    32    1
    30    31    33    1
    31    31    34    1
    32     7     2   ar
    33    34    28    1
    34    16     8   ar
    35    15    11   ar
    36    23    24    1
    37    23    25    1
@<TRIPOS>MOLECULE
*****
 34 37 0 0 0
SMALL
GASTEIGER

@<TRIPOS>ATOM
      1 C         144.2075  140.3971  163.0527 C.3     1  UNL1        0.1219
      2 C         143.7115  139.7382  161.7998 C.ar    1  UNL1       -0.0121
      3 C         143.4565  140.5595  160.5709 C.ar    1  UNL1       -0.0037
      4 C         142.9605  139.9005  159.3180 C.ar    1  UNL1        0.0012
      5 C         142.7195  138.4202  159.2940 C.ar    1  UNL1        0.0177
      6 C         142.9746  137.5989  160.5230 C.ar    1  UNL1        0.0012
      7 C         143.4706  138.2578  161.7759 C.ar    1  UNL1       -0.0037
      8 C         142.2235  137.7612  158.0411 C.ar    1  UNL1        0.0845
      9 C         140.7936  137.9293  157.6208 C.ar    1  UNL1        0.0399
     10 C         140.2976  137.2703  156.3679 C.ar    1  UNL1        0.1036
     11 N         141.2317  136.4431  155.5354 N.ar    1  UNL1       -0.2106
     12 N         141.0304  135.6790  154.2604 N.ar    1  UNL1       -0.1621
     13 C         142.3360  135.0386  153.8928 C.ar    1  UNL1        0.1237
     14 C         143.3443  135.4069  154.9405 C.ar    1  UNL1        0.0612
     15 C         142.6617  136.2749  155.9557 C.ar    1  UNL1        0.1653
     16 N         143.1577  136.9340  157.2086 N.ar    1  UNL1       -0.2264
     17 C         143.0886  138.7182  166.4703 C.3     1  UNL1        0.1149
     18 N         143.0337  139.4926  165.1867 N.am    1  UNL1       -0.2757
     19 C         141.7501  140.1368  164.7538 C.3     1  UNL1        0.1149
     20 C         144.2623  139.6228  164.3362 C.2     1  UNL1        0.2312
     21 O         145.5459  138.9785  164.7692 O.2     1  UNL1       -0.2745
     22 C         144.6486  141.8305  163.0221 C.3     1  UNL1        0.1413
     23 N         145.8069  142.2404  162.1617 N.3     1  UNL1       -0.3144
     24 H         146.1716  141.4240  161.6709 H       1  UNL1        0.1193
     25 H         146.5401  142.6410  162.7468 H       1  UNL1        0.1193
     26 C         143.9315  142.8537  163.8518 C.2     1  UNL1        0.2406
     27 O         144.2414  142.9852  165.3136 O.2     1  UNL1       -0.2734
     28 N         142.9043  143.7457  163.2198 N.am    1  UNL1       -0.2730
     29 C         142.1104  144.8094  163.9187 C.3     1  UNL1        0.0993
     30 C         141.2061  145.4517  162.9088 C.3     1  UNL1        0.0898
     31 C         141.4412  144.7850  161.5859 C.3     1  UNL1        0.2835
     32 F         140.3951  145.7417  161.0956 F       1  UNL1       -0.2024
     33 F         141.4576  144.3183  160.1604 F       1  UNL1       -0.2024
     34 C         142.4907  143.7307  161.7781 C.3     1  UNL1        0.1601
@<TRIPOS>BOND
     1    17    18    1
     2    18    19    1
     3    18    20   am
     4    20    21    2
     5     1    20    1
     6     1     2    1
     7     2     3   ar
     8     3     4   ar
     9     4     5   ar
    10     5     8    1
    11     8     9   ar
    12     9    10   ar
    13    10    11   ar
    14    11    12   ar
    15    12    13   ar
    16    13    14   ar
    17    14    15   ar
    18    15    16   ar
    19     5     6   ar
    20     6     7   ar
    21     1    22    1
    22    22    23    1
    23    22    26    1
    24    26    27    2
    25    26    28   am
    26    28    29    1
    27    29    30    1
    28    30    31    1
    29    31    32    1
    30    31    33    1
    31    31    34    1
    32     7     2   ar
    33    34    28    1
    34    16     8   ar
    35    15    11   ar
    36    23    24    1
    37    23    25    1
@<TRIPOS>MOLECULE
*****
 34 37 0 0 0
SMALL
GASTEIGER

@<TRIPOS>ATOM
      1 C         143.0925  140.6230  164.0206 C.3     1  UNL1        0.1219
      2 C         142.8243  139.9853  162.6896 C.ar    1  UNL1       -0.0121
      3 C         141.4397  139.5224  162.3452 C.ar    1  UNL1       -0.0037
      4 C         141.1715  138.8847  161.0142 C.ar    1  UNL1        0.0012
      5 C         142.2878  138.7099  160.0278 C.ar    1  UNL1        0.0177
      6 C         143.6724  139.1728  160.3722 C.ar    1  UNL1        0.0012
      7 C         143.9406  139.8105  161.7031 C.ar    1  UNL1       -0.0037
      8 C         142.0197  138.0722  158.6968 C.ar    1  UNL1        0.0845
      9 C         140.6733  138.2194  158.0522 C.ar    1  UNL1        0.0399
     10 C         140.4052  137.5817  156.7212 C.ar    1  UNL1        0.1036
     11 N         141.4835  136.7968  156.0349 N.ar    1  UNL1       -0.2106
     12 N         141.5123  136.0611  154.7280 N.ar    1  UNL1       -0.1621
     13 C         142.8765  135.4593  154.5649 C.ar    1  UNL1        0.1237
     14 C         143.6909  135.8230  155.7709 C.ar    1  UNL1        0.0612
     15 C         142.8299  136.6496  156.6795 C.ar    1  UNL1        0.1653
     16 N         143.0980  137.2873  158.0104 N.ar    1  UNL1       -0.2264
     17 C         143.8616  144.5164  164.0192 C.3     1  UNL1        0.1149
     18 N         143.1106  143.2200  163.9464 N.am    1  UNL1       -0.2757
     19 C         141.6268  143.2240  163.7266 C.3     1  UNL1        0.1149
     20 C         143.8434  141.9195  164.0933 C.2     1  UNL1        0.2312
     21 O         145.3272  141.9154  164.3131 O.2     1  UNL1       -0.2745
     22 C         142.6097  139.9642  165.2787 C.3     1  UNL1        0.1413
     23 N         143.3180  138.7537  165.8107 N.3     1  UNL1       -0.3144
     24 H         144.0980  138.5189  165.1968 H       1  UNL1        0.1193
     25 H         142.6676  137.9689  165.8494 H       1  UNL1        0.1193
     26 C         141.4188  140.5159  166.0048 C.2     1  UNL1        0.2406
     27 O         140.0348  140.2275  165.5035 O.2     1  UNL1       -0.2734
     28 N         141.6119  141.3563  167.2323 N.am    1  UNL1       -0.2730
     29 C         140.5226  141.9731  168.0588 C.3     1  UNL1        0.0993
     30 C         141.1656  142.7253  169.1861 C.3     1  UNL1        0.0898
     31 C         142.6522  142.5733  169.0563 C.3     1  UNL1        0.2835
     32 F         142.6888  143.4249  170.2906 F       1  UNL1       -0.2024
     33 F         144.1465  142.5994  169.1845 F       1  UNL1       -0.2024
     34 C         142.9280  141.7272  167.8488 C.3     1  UNL1        0.1601
@<TRIPOS>BOND
     1    17    18    1
     2    18    19    1
     3    18    20   am
     4    20    21    2
     5     1    20    1
     6     1     2    1
     7     2     3   ar
     8     3     4   ar
     9     4     5   ar
    10     5     8    1
    11     8     9   ar
    12     9    10   ar
    13    10    11   ar
    14    11    12   ar
    15    12    13   ar
    16    13    14   ar
    17    14    15   ar
    18    15    16   ar
    19     5     6   ar
    20     6     7   ar
    21     1    22    1
    22    22    23    1
    23    22    26    1
    24    26    27    2
    25    26    28   am
    26    28    29    1
    27    29    30    1
    28    30    31    1
    29    31    32    1
    30    31    33    1
    31    31    34    1
    32     7     2   ar
    33    34    28    1
    34    16     8   ar
    35    15    11   ar
    36    23    24    1
    37    23    25    1
@<TRIPOS>MOLECULE
*****
 34 37 0 0 0
SMALL
GASTEIGER

@<TRIPOS>ATOM
      1 C         142.6646  140.8916  163.6658 C.3     1  UNL1        0.1219
      2 C         142.4643  140.1715  162.3653 C.ar    1  UNL1       -0.0121
      3 C         143.6403  139.8783  161.4815 C.ar    1  UNL1       -0.0037
      4 C         143.4399  139.1581  160.1810 C.ar    1  UNL1        0.0012
      5 C         142.0637  138.7311  159.7644 C.ar    1  UNL1        0.0177
      6 C         140.8877  139.0243  160.6482 C.ar    1  UNL1        0.0012
      7 C         141.0880  139.7444  161.9487 C.ar    1  UNL1       -0.0037
      8 C         141.8633  138.0109  158.4639 C.ar    1  UNL1        0.0845
      9 C         140.5291  138.0548  157.7801 C.ar    1  UNL1        0.0399
     10 C         140.3287  137.3345  156.4796 C.ar    1  UNL1        0.1036
     11 N         141.4627  136.5704  155.8630 N.ar    1  UNL1       -0.2106
     12 N         141.5630  135.7690  154.5991 N.ar    1  UNL1       -0.1621
     13 C         142.9594  135.2298  154.5018 C.ar    1  UNL1        0.1237
     14 C         143.7220  135.6980  155.7056 C.ar    1  UNL1        0.0612
     15 C         142.7970  136.5266  156.5469 C.ar    1  UNL1        0.1653
     16 N         142.9973  137.2468  157.8474 N.ar    1  UNL1       -0.2264
     17 C         143.8202  144.6875  163.7459 C.3     1  UNL1        0.1149
     18 N         143.8771  143.1891  163.7018 N.am    1  UNL1       -0.2757
     19 C         145.2032  142.4901  163.6495 C.3     1  UNL1        0.1149
     20 C         142.6078  142.3899  163.7099 C.2     1  UNL1        0.2312
     21 O         141.2817  143.0890  163.7621 O.2     1  UNL1       -0.2745
     22 C         142.9217  140.1135  164.9221 C.3     1  UNL1        0.1413
     23 N         143.8719  138.9529  164.9043 N.3     1  UNL1       -0.3144
     24 H         144.2486  138.8364  163.9636 H       1  UNL1        0.1193
     25 H         143.3775  138.1045  165.1801 H       1  UNL1        0.1193
     26 C         142.2287  140.4960  166.1962 C.2     1  UNL1        0.2406
     27 O         142.9126  141.3979  167.1805 O.2     1  UNL1       -0.2734
     28 N         140.8516  139.9765  166.4861 N.am    1  UNL1       -0.2730
     29 C         140.0380  140.2710  167.7114 C.3     1  UNL1        0.0993
     30 C         138.7300  139.5478  167.5842 C.3     1  UNL1        0.0898
     31 C         138.7353  138.8063  166.2803 C.3     1  UNL1        0.2835
     32 F         137.3653  138.3672  166.7049 F       1  UNL1       -0.2024
     33 F         138.4542  137.9730  165.0652 F       1  UNL1       -0.2024
     34 C         140.0465  139.0712  165.6017 C.3     1  UNL1        0.1601
@<TRIPOS>BOND
     1    17    18    1
     2    18    19    1
     3    18    20   am
     4    20    21    2
     5     1    20    1
     6     1     2    1
     7     2     3   ar
     8     3     4   ar
     9     4     5   ar
    10     5     8    1
    11     8     9   ar
    12     9    10   ar
    13    10    11   ar
    14    11    12   ar
    15    12    13   ar
    16    13    14   ar
    17    14    15   ar
    18    15    16   ar
    19     5     6   ar
    20     6     7   ar
    21     1    22    1
    22    22    23    1
    23    22    26    1
    24    26    27    2
    25    26    28   am
    26    28    29    1
    27    29    30    1
    28    30    31    1
    29    31    32    1
    30    31    33    1
    31    31    34    1
    32     7     2   ar
    33    34    28    1
    34    16     8   ar
    35    15    11   ar
    36    23    24    1
    37    23    25    1
@<TRIPOS>MOLECULE
*****
 34 37 0 0 0
SMALL
GASTEIGER

@<TRIPOS>ATOM
      1 C         140.5166  141.6578  160.2778 C.3     1  UNL1        0.1219
      2 C         140.3767  141.5543  161.7677 C.ar    1  UNL1       -0.0121
      3 C         140.4000  140.2094  162.4315 C.ar    1  UNL1       -0.0037
      4 C         140.2601  140.1059  163.9214 C.ar    1  UNL1        0.0012
      5 C         140.0969  141.3473  164.7474 C.ar    1  UNL1        0.0177
      6 C         140.0736  142.6922  164.0835 C.ar    1  UNL1        0.0012
      7 C         140.2135  142.7957  162.5937 C.ar    1  UNL1       -0.0037
      8 C         139.9570  141.2438  166.2373 C.ar    1  UNL1        0.0845
      9 C         139.3713  140.0071  166.8515 C.ar    1  UNL1        0.0399
     10 C         139.2314  139.9036  168.3415 C.ar    1  UNL1        0.1036
     11 N         139.6772  141.0370  169.2171 N.ar    1  UNL1       -0.2106
     12 N         139.6642  141.2204  170.7057 N.ar    1  UNL1       -0.1621
     13 C         140.2418  142.5705  171.0115 C.ar    1  UNL1        0.1237
     14 C         140.6119  143.2216  169.7118 C.ar    1  UNL1        0.0612
     15 C         140.2629  142.2738  168.6028 C.ar    1  UNL1        0.1653
     16 N         140.4028  142.3772  167.1129 N.ar    1  UNL1       -0.2264
     17 C         137.4056  140.7607  157.9828 C.3     1  UNL1        0.1149
     18 N         138.6255  140.6038  158.8416 N.am    1  UNL1       -0.2757
     19 C         139.1740  139.2363  159.1229 C.3     1  UNL1        0.1149
     20 C         139.2968  141.8145  159.4190 C.2     1  UNL1        0.2312
     21 O         138.7483  143.1820  159.1377 O.2     1  UNL1       -0.2745
     22 C         141.8763  141.6046  159.6467 C.3     1  UNL1        0.1413
     23 N         142.1303  140.6853  158.4888 N.3     1  UNL1       -0.3144
     24 H         141.2752  140.1762  158.2651 H       1  UNL1        0.1193
     25 H         142.8657  140.0230  158.7355 H       1  UNL1        0.1193
     26 C         142.9820  142.4704  160.1734 C.2     1  UNL1        0.2406
     27 O         143.2110  143.8328  159.5891 O.2     1  UNL1       -0.2734
     28 N         143.8590  141.9740  161.2846 N.am    1  UNL1       -0.2730
     29 C         144.9978  142.7230  161.9107 C.3     1  UNL1        0.0993
     30 C         145.5937  141.8533  162.9778 C.3     1  UNL1        0.0898
     31 C         144.8231  140.5668  163.0110 C.3     1  UNL1        0.2835
     32 F         145.7757  140.2075  164.1126 F       1  UNL1       -0.2024
     33 F         144.2517  139.2052  163.2746 F       1  UNL1       -0.2024
     34 C         143.7510  140.6414  161.9646 C.3     1  UNL1        0.1601
@<TRIPOS>BOND
     1    17    18    1
     2    18    19    1
     3    18    20   am
     4    20    21    2
     5     1    20    1
     6     1     2    1
     7     2     3   ar
     8     3     4   ar
     9     4     5   ar
    10     5     8    1
    11     8     9   ar
    12     9    10   ar
    13    10    11   ar
    14    11    12   ar
    15    12    13   ar
    16    13    14   ar
    17    14    15   ar
    18    15    16   ar
    19     5     6   ar
    20     6     7   ar
    21     1    22    1
    22    22    23    1
    23    22    26    1
    24    26    27    2
    25    26    28   am
    26    28    29    1
    27    29    30    1
    28    30    31    1
    29    31    32    1
    30    31    33    1
    31    31    34    1
    32     7     2   ar
    33    34    28    1
    34    16     8   ar
    35    15    11   ar
    36    23    24    1
    37    23    25    1
