@<TRIPOS>MOLECULE
*****
 31 35 0 0 0
SMALL
GASTEIGER

@<TRIPOS>ATOM
      1 C         139.1012  140.1220  165.9813 C.3     1  UNL1        0.0216
      2 C         138.3147  140.7525  164.8706 C.3     1  UNL1        0.0214
      3 C         137.7186  141.6275  163.8080 C.3     1  UNL1        0.0725
      4 N         138.4647  142.9287  163.8065 N.3     1  UNL1       -0.2707
      5 C         139.5221  142.8579  164.8681 C.3     1  UNL1        0.0725
      6 C         139.4294  141.5130  165.5257 C.3     1  UNL1        0.0214
      7 C         140.1252  139.9543  167.0645 C.ar    1  UNL1       -0.0226
      8 C         141.5503  139.6496  166.7090 C.ar    1  UNL1       -0.0043
      9 C         142.5742  139.4819  167.7923 C.ar    1  UNL1       -0.0002
     10 C         142.1731  139.6189  169.2311 C.ar    1  UNL1        0.0045
     11 C         140.7481  139.9237  169.5867 C.ar    1  UNL1        0.0528
     12 C         139.7241  140.0914  168.5034 C.ar    1  UNL1        0.0002
     13 C         140.3469  140.0607  171.0255 C.2     1  UNL1        0.2427
     14 N         139.5165  138.9951  171.6774 N.am    1  UNL1       -0.3253
     15 O         140.7763  141.2633  171.8126 O.2     1  UNL1       -0.2704
     16 H         139.2347  138.2058  171.1608 H       1  UNL1        0.1453
     17 H         139.2532  139.0851  172.6218 H       1  UNL1        0.1453
     18 C         138.8277  137.6797  165.1386 C.3     1  UNL1        0.0003
     19 C         138.4175  138.7893  166.0608 C.3     1  UNL1        0.0041
     20 C         138.2001  144.0958  162.9021 C.3     1  UNL1        0.0999
     21 C         139.2858  144.6099  162.0038 C.3     1  UNL1        0.1110
     22 O         139.4083  145.6935  163.0338 O.3     1  UNL1       -0.3847
     23 C         140.3971  145.3505  161.3209 C.3     1  UNL1        0.0546
     24 C         140.7346  144.6172  160.0566 C.ar    1  UNL1       -0.0237
     25 C         141.7473  144.8823  158.9823 C.ar    1  UNL1       -0.0045
     26 C         141.8571  143.9535  157.8096 C.ar    1  UNL1       -0.0003
     27 C         140.9543  142.7597  157.7112 C.ar    1  UNL1       -0.0003
     28 C         139.9417  142.4946  158.7855 C.ar    1  UNL1       -0.0045
     29 C         139.8318  143.4233  159.9582 C.ar    1  UNL1       -0.0237
     30 C         138.9364  143.4188  161.1617 C.3     1  UNL1        0.0546
     31 H         140.1081  146.3117  162.7711 H       1  UNL1        0.2103
@<TRIPOS>BOND
     1    18    19    1
     2     1    19    1
     3     1     7    1
     4     7     8   ar
     5     8     9   ar
     6     9    10   ar
     7    10    11   ar
     8    11    13    1
     9    13    14   am
    10    13    15    2
    11    11    12   ar
    12     1     2    1
    13     2     3    1
    14     3     4    1
    15     4    20    1
    16    20    21    1
    17    21    22    1
    18    21    23    1
    19    23    24    1
    20    24    25   ar
    21    25    26   ar
    22    26    27   ar
    23    27    28   ar
    24    28    29   ar
    25    29    30    1
    26     4     5    1
    27     6     5    1
    28     6     1    1
    29    12     7   ar
    30     6     2    1
    31    30    21    1
    32    29    24   ar
    33    14    16    1
    34    14    17    1
    35    22    31    1
@<TRIPOS>MOLECULE
*****
 31 35 0 0 0
SMALL
GASTEIGER

@<TRIPOS>ATOM
      1 C         139.2720  139.3354  166.0180 C.3     1  UNL1        0.0216
      2 C         139.3058  138.4129  164.8358 C.3     1  UNL1        0.0214
      3 C         139.6134  137.6311  163.5931 C.3     1  UNL1        0.0725
      4 N         140.9296  138.1110  163.0574 N.3     1  UNL1       -0.2707
      5 C         141.4356  139.1895  163.9689 C.3     1  UNL1        0.0725
      6 C         140.4320  139.3761  165.0680 C.3     1  UNL1        0.0214
      7 C         139.6916  140.4005  166.9873 C.ar    1  UNL1       -0.0226
      8 C         140.0466  141.7702  166.4894 C.ar    1  UNL1       -0.0043
      9 C         140.4662  142.8352  167.4588 C.ar    1  UNL1       -0.0002
     10 C         140.5307  142.5306  168.9261 C.ar    1  UNL1        0.0045
     11 C         140.1757  141.1609  169.4240 C.ar    1  UNL1        0.0528
     12 C         139.7561  140.0959  168.4547 C.ar    1  UNL1        0.0002
     13 C         140.2403  140.8563  170.8914 C.2     1  UNL1        0.2427
     14 N         139.9371  139.4723  171.3841 N.am    1  UNL1       -0.3253
     15 O         140.6080  141.9355  171.8660 O.2     1  UNL1       -0.2704
     16 H         139.6957  138.7639  170.7444 H       1  UNL1        0.1453
     17 H         139.9794  139.2724  172.3471 H       1  UNL1        0.1453
     18 C         137.6181  137.4708  166.7514 C.3     1  UNL1        0.0003
     19 C         137.9662  138.9249  166.6315 C.3     1  UNL1        0.0041
     20 C         141.6190  137.6019  161.8263 C.3     1  UNL1        0.0999
     21 C         142.6044  138.4723  161.1043 C.3     1  UNL1        0.1110
     22 O         143.6252  137.5895  161.7590 O.3     1  UNL1       -0.3847
     23 C         143.8033  139.1582  160.5192 C.3     1  UNL1        0.0546
     24 C         143.3175  140.2830  159.6538 C.ar    1  UNL1       -0.0237
     25 C         144.0465  141.2999  158.8266 C.ar    1  UNL1       -0.0045
     26 C         143.2764  142.3261  158.0496 C.ar    1  UNL1       -0.0003
     27 C         141.7773  142.3354  158.0999 C.ar    1  UNL1       -0.0003
     28 C         141.0483  141.3185  158.9271 C.ar    1  UNL1       -0.0045
     29 C         141.8184  140.2923  159.7041 C.ar    1  UNL1       -0.0237
     30 C         141.3777  139.1732  160.6005 C.3     1  UNL1        0.0546
     31 H         144.5148  137.8762  161.4994 H       1  UNL1        0.2103
@<TRIPOS>BOND
     1    18    19    1
     2     1    19    1
     3     1     7    1
     4     7     8   ar
     5     8     9   ar
     6     9    10   ar
     7    10    11   ar
     8    11    13    1
     9    13    14   am
    10    13    15    2
    11    11    12   ar
    12     1     2    1
    13     2     3    1
    14     3     4    1
    15     4    20    1
    16    20    21    1
    17    21    22    1
    18    21    23    1
    19    23    24    1
    20    24    25   ar
    21    25    26   ar
    22    26    27   ar
    23    27    28   ar
    24    28    29   ar
    25    29    30    1
    26     4     5    1
    27     6     5    1
    28     6     1    1
    29    12     7   ar
    30     6     2    1
    31    30    21    1
    32    29    24   ar
    33    14    16    1
    34    14    17    1
    35    22    31    1
@<TRIPOS>MOLECULE
*****
 31 35 0 0 0
SMALL
GASTEIGER

@<TRIPOS>ATOM
      1 C         140.7100  142.8109  165.8329 C.3     1  UNL1        0.0216
      2 C         141.5182  143.2261  164.6395 C.3     1  UNL1        0.0214
      3 C         142.5111  143.4015  163.5289 C.3     1  UNL1        0.0725
      4 N         143.5626  142.3420  163.6753 N.3     1  UNL1       -0.2707
      5 C         143.2197  141.5116  164.8765 C.3     1  UNL1        0.0725
      6 C         141.9562  142.0580  165.4724 C.3     1  UNL1        0.0214
      7 C         140.2829  142.0415  167.0477 C.ar    1  UNL1       -0.0226
      8 C         139.7469  140.6480  166.9029 C.ar    1  UNL1       -0.0043
      9 C         139.3199  139.8786  168.1177 C.ar    1  UNL1       -0.0002
     10 C         139.4289  140.5028  169.4773 C.ar    1  UNL1        0.0045
     11 C         139.9649  141.8962  169.6221 C.ar    1  UNL1        0.0528
     12 C         140.3919  142.6656  168.4073 C.ar    1  UNL1        0.0002
     13 C         140.0738  142.5204  170.9817 C.2     1  UNL1        0.2427
     14 N         138.9805  143.4150  171.4861 N.am    1  UNL1       -0.3253
     15 O         141.2760  142.2499  171.8370 O.2     1  UNL1       -0.2704
     16 H         138.1915  143.5926  170.9248 H       1  UNL1        0.1453
     17 H         139.0521  143.8247  172.3785 H       1  UNL1        0.1453
     18 C         139.0699  144.2706  164.4438 C.3     1  UNL1        0.0003
     19 C         139.6120  143.8310  165.7715 C.3     1  UNL1        0.0041
     20 C         144.7488  142.1469  162.7782 C.3     1  UNL1        0.0999
     21 C         144.5720  142.1551  161.2887 C.3     1  UNL1        0.1110
     22 O         145.1025  143.5544  161.3913 O.3     1  UNL1       -0.3847
     23 C         144.5061  142.4558  159.8206 C.3     1  UNL1        0.0546
     24 C         143.9719  141.2407  159.1220 C.ar    1  UNL1       -0.0237
     25 C         143.6919  140.9560  157.6762 C.ar    1  UNL1       -0.0045
     26 C         143.1476  139.6196  157.2667 C.ar    1  UNL1       -0.0003
     27 C         142.8833  138.5678  158.3031 C.ar    1  UNL1       -0.0003
     28 C         143.1633  138.8525  159.7489 C.ar    1  UNL1       -0.0045
     29 C         143.7076  140.1889  160.1584 C.ar    1  UNL1       -0.0237
     30 C         144.0785  140.7541  161.4974 C.3     1  UNL1        0.0546
     31 H         145.1425  143.9507  160.5068 H       1  UNL1        0.2103
@<TRIPOS>BOND
     1    18    19    1
     2     1    19    1
     3     1     7    1
     4     7     8   ar
     5     8     9   ar
     6     9    10   ar
     7    10    11   ar
     8    11    13    1
     9    13    14   am
    10    13    15    2
    11    11    12   ar
    12     1     2    1
    13     2     3    1
    14     3     4    1
    15     4    20    1
    16    20    21    1
    17    21    22    1
    18    21    23    1
    19    23    24    1
    20    24    25   ar
    21    25    26   ar
    22    26    27   ar
    23    27    28   ar
    24    28    29   ar
    25    29    30    1
    26     4     5    1
    27     6     5    1
    28     6     1    1
    29    12     7   ar
    30     6     2    1
    31    30    21    1
    32    29    24   ar
    33    14    16    1
    34    14    17    1
    35    22    31    1
@<TRIPOS>MOLECULE
*****
 31 35 0 0 0
SMALL
GASTEIGER

@<TRIPOS>ATOM
      1 C         138.9035  139.8889  165.9559 C.3     1  UNL1        0.0216
      2 C         138.1355  140.1656  164.6977 C.3     1  UNL1        0.0214
      3 C         137.6025  140.6412  163.3787 C.3     1  UNL1        0.0725
      4 N         138.5656  141.6492  162.8256 N.3     1  UNL1       -0.2707
      5 C         139.6941  141.7968  163.8027 C.3     1  UNL1        0.0725
      6 C         139.4282  140.8799  164.9597 C.3     1  UNL1        0.0214
      7 C         139.9842  139.9654  166.9935 C.ar    1  UNL1       -0.0226
      8 C         141.4253  139.9556  166.5777 C.ar    1  UNL1       -0.0043
      9 C         142.5059  140.0321  167.6154 C.ar    1  UNL1       -0.0002
     10 C         142.1452  140.1186  169.0688 C.ar    1  UNL1        0.0045
     11 C         140.7040  140.1285  169.4846 C.ar    1  UNL1        0.0528
     12 C         139.6235  140.0519  168.4469 C.ar    1  UNL1        0.0002
     13 C         140.3433  140.2150  170.9380 C.2     1  UNL1        0.2427
     14 N         139.6110  139.0841  171.5976 N.am    1  UNL1       -0.3253
     15 O         140.7149  141.4322  171.7319 O.2     1  UNL1       -0.2704
     16 H         139.3671  138.2852  171.0766 H       1  UNL1        0.1453
     17 H         139.3743  139.1409  172.5515 H       1  UNL1        0.1453
     18 C         138.0640  137.4381  166.1532 C.3     1  UNL1        0.0003
     19 C         138.0036  138.8712  166.5919 C.3     1  UNL1        0.0041
     20 C         138.4252  142.3813  161.5239 C.3     1  UNL1        0.0999
     21 C         139.6196  143.0425  160.9026 C.3     1  UNL1        0.1110
     22 O         139.0146  144.2989  161.4551 O.3     1  UNL1       -0.3847
     23 C         140.6876  143.9664  160.3967 C.3     1  UNL1        0.0546
     24 C         141.7029  143.1427  159.6614 C.ar    1  UNL1       -0.0237
     25 C         142.9716  143.5124  158.9517 C.ar    1  UNL1       -0.0045
     26 C         143.7999  142.4491  158.2934 C.ar    1  UNL1       -0.0003
     27 C         143.3594  141.0161  158.3448 C.ar    1  UNL1       -0.0003
     28 C         142.0907  140.6465  159.0545 C.ar    1  UNL1       -0.0045
     29 C         141.2625  141.7098  159.7128 C.ar    1  UNL1       -0.0237
     30 C         139.9749  141.6478  160.4798 C.3     1  UNL1        0.0546
     31 H         139.5777  145.0556  161.2288 H       1  UNL1        0.2103
@<TRIPOS>BOND
     1    18    19    1
     2     1    19    1
     3     1     7    1
     4     7     8   ar
     5     8     9   ar
     6     9    10   ar
     7    10    11   ar
     8    11    13    1
     9    13    14   am
    10    13    15    2
    11    11    12   ar
    12     1     2    1
    13     2     3    1
    14     3     4    1
    15     4    20    1
    16    20    21    1
    17    21    22    1
    18    21    23    1
    19    23    24    1
    20    24    25   ar
    21    25    26   ar
    22    26    27   ar
    23    27    28   ar
    24    28    29   ar
    25    29    30    1
    26     4     5    1
    27     6     5    1
    28     6     1    1
    29    12     7   ar
    30     6     2    1
    31    30    21    1
    32    29    24   ar
    33    14    16    1
    34    14    17    1
    35    22    31    1
@<TRIPOS>MOLECULE
*****
 31 35 0 0 0
SMALL
GASTEIGER

@<TRIPOS>ATOM
      1 C         141.5805  142.3333  165.7633 C.3     1  UNL1        0.0216
      2 C         141.8017  143.0211  164.4488 C.3     1  UNL1        0.0214
      3 C         141.7141  143.7630  163.1480 C.3     1  UNL1        0.0725
      4 N         140.2844  144.1656  162.9392 N.3     1  UNL1       -0.2707
      5 C         139.4881  143.6725  164.1110 C.3     1  UNL1        0.0725
      6 C         140.4259  142.9652  165.0439 C.3     1  UNL1        0.0214
      7 C         140.8731  141.8007  166.9741 C.ar    1  UNL1       -0.0226
      8 C         140.2160  140.4531  166.9267 C.ar    1  UNL1       -0.0043
      9 C         139.5087  139.9205  168.1375 C.ar    1  UNL1       -0.0002
     10 C         139.4584  140.7356  169.3957 C.ar    1  UNL1        0.0045
     11 C         140.1155  142.0832  169.4431 C.ar    1  UNL1        0.0528
     12 C         140.8228  142.6157  168.2323 C.ar    1  UNL1        0.0002
     13 C         140.0652  142.8982  170.7014 C.2     1  UNL1        0.2427
     14 N         139.6832  144.3475  170.6414 N.am    1  UNL1       -0.3253
     15 O         140.3969  142.2640  172.0196 O.2     1  UNL1       -0.2704
     16 H         139.4655  144.7638  169.7762 H       1  UNL1        0.1453
     17 H         139.6502  144.8825  171.4672 H       1  UNL1        0.1453
     18 C         143.8550  141.3695  164.9584 C.3     1  UNL1        0.0003
     19 C         142.9808  141.8864  166.0623 C.3     1  UNL1        0.0041
     20 C         139.7454  144.9275  161.7649 C.3     1  UNL1        0.0999
     21 C         139.6874  144.2797  160.4132 C.3     1  UNL1        0.1110
     22 O         138.6858  143.3729  161.0647 O.3     1  UNL1       -0.3847
     23 C         139.4201  143.4425  159.1977 C.3     1  UNL1        0.0546
     24 C         140.2687  143.9672  158.0776 C.ar    1  UNL1       -0.0237
     25 C         140.4227  143.5374  156.6488 C.ar    1  UNL1       -0.0045
     26 C         141.3684  144.2691  155.7433 C.ar    1  UNL1       -0.0003
     27 C         142.1602  145.4307  156.2665 C.ar    1  UNL1       -0.0003
     28 C         142.0062  145.8606  157.6953 C.ar    1  UNL1       -0.0045
     29 C         141.0604  145.1288  158.6009 C.ar    1  UNL1       -0.0237
     30 C         140.7012  145.3220  160.0444 C.3     1  UNL1        0.0546
     31 H         138.3702  142.7223  160.4182 H       1  UNL1        0.2103
@<TRIPOS>BOND
     1    18    19    1
     2     1    19    1
     3     1     7    1
     4     7     8   ar
     5     8     9   ar
     6     9    10   ar
     7    10    11   ar
     8    11    13    1
     9    13    14   am
    10    13    15    2
    11    11    12   ar
    12     1     2    1
    13     2     3    1
    14     3     4    1
    15     4    20    1
    16    20    21    1
    17    21    22    1
    18    21    23    1
    19    23    24    1
    20    24    25   ar
    21    25    26   ar
    22    26    27   ar
    23    27    28   ar
    24    28    29   ar
    25    29    30    1
    26     4     5    1
    27     6     5    1
    28     6     1    1
    29    12     7   ar
    30     6     2    1
    31    30    21    1
    32    29    24   ar
    33    14    16    1
    34    14    17    1
    35    22    31    1
@<TRIPOS>MOLECULE
*****
 31 35 0 0 0
SMALL
GASTEIGER

@<TRIPOS>ATOM
      1 C         141.5355  142.4742  166.1821 C.3     1  UNL1        0.0216
      2 C         141.6295  143.3450  164.9644 C.3     1  UNL1        0.0214
      3 C         141.4101  144.2082  163.7575 C.3     1  UNL1        0.0725
      4 N         139.9311  144.3540  163.5545 N.3     1  UNL1       -0.2707
      5 C         139.2363  143.5809  164.6360 C.3     1  UNL1        0.0725
      6 C         140.2860  142.9573  165.5073 C.3     1  UNL1        0.0214
      7 C         140.9353  141.6747  167.3004 C.ar    1  UNL1       -0.0226
      8 C         139.8491  140.6810  167.0131 C.ar    1  UNL1       -0.0043
      9 C         139.2489  139.8815  168.1314 C.ar    1  UNL1       -0.0002
     10 C         139.7349  140.0759  169.5371 C.ar    1  UNL1        0.0045
     11 C         140.8212  141.0696  169.8245 C.ar    1  UNL1        0.0528
     12 C         141.4214  141.8691  168.7061 C.ar    1  UNL1        0.0002
     13 C         141.3072  141.2639  171.2301 C.2     1  UNL1        0.2427
     14 N         142.5567  140.5754  171.6936 N.am    1  UNL1       -0.3253
     15 O         140.5439  142.1467  172.1724 O.2     1  UNL1       -0.2704
     16 H         143.0578  139.9960  171.0752 H       1  UNL1        0.1453
     17 H         142.8757  140.7030  172.6162 H       1  UNL1        0.1453
     18 C         143.9642  142.1036  165.3370 C.3     1  UNL1        0.0003
     19 C         142.9935  142.2687  166.4685 C.3     1  UNL1        0.0041
     20 C         139.2639  145.1357  162.4618 C.3     1  UNL1        0.0999
     21 C         139.8160  145.0975  161.0677 C.3     1  UNL1        0.1110
     22 O         140.2734  146.4916  161.3792 O.3     1  UNL1       -0.3847
     23 C         140.4637  145.3506  159.7386 C.3     1  UNL1        0.0546
     24 C         140.2912  144.1209  158.8971 C.ar    1  UNL1       -0.0237
     25 C         140.7236  143.7928  157.4988 C.ar    1  UNL1       -0.0045
     26 C         140.4016  142.4516  156.9094 C.ar    1  UNL1       -0.0003
     27 C         139.6473  141.4384  157.7184 C.ar    1  UNL1       -0.0003
     28 C         139.2149  141.7665  159.1168 C.ar    1  UNL1       -0.0045
     29 C         139.5369  143.1077  159.7061 C.ar    1  UNL1       -0.0237
     30 C         139.2432  143.7113  161.0476 C.3     1  UNL1        0.0546
     31 H         140.7397  146.8580  160.6116 H       1  UNL1        0.2103
@<TRIPOS>BOND
     1    18    19    1
     2     1    19    1
     3     1     7    1
     4     7     8   ar
     5     8     9   ar
     6     9    10   ar
     7    10    11   ar
     8    11    13    1
     9    13    14   am
    10    13    15    2
    11    11    12   ar
    12     1     2    1
    13     2     3    1
    14     3     4    1
    15     4    20    1
    16    20    21    1
    17    21    22    1
    18    21    23    1
    19    23    24    1
    20    24    25   ar
    21    25    26   ar
    22    26    27   ar
    23    27    28   ar
    24    28    29   ar
    25    29    30    1
    26     4     5    1
    27     6     5    1
    28     6     1    1
    29    12     7   ar
    30     6     2    1
    31    30    21    1
    32    29    24   ar
    33    14    16    1
    34    14    17    1
    35    22    31    1
@<TRIPOS>MOLECULE
*****
 31 35 0 0 0
SMALL
GASTEIGER

@<TRIPOS>ATOM
      1 C         139.4176  140.6047  166.2958 C.3     1  UNL1        0.0216
      2 C         138.5151  140.9175  165.1394 C.3     1  UNL1        0.0214
      3 C         137.8082  141.4712  163.9378 C.3     1  UNL1        0.0725
      4 N         138.5555  142.6886  163.4804 N.3     1  UNL1       -0.2707
      5 C         139.7244  142.8874  164.3992 C.3     1  UNL1        0.0725
      6 C         139.6993  141.7928  165.4246 C.3     1  UNL1        0.0214
      7 C         140.5553  140.7182  167.2669 C.ar    1  UNL1       -0.0226
      8 C         141.6004  139.6438  167.3268 C.ar    1  UNL1       -0.0043
      9 C         142.7380  139.7574  168.2979 C.ar    1  UNL1       -0.0002
     10 C         142.8305  140.9453  169.2091 C.ar    1  UNL1        0.0045
     11 C         141.7855  142.0197  169.1492 C.ar    1  UNL1        0.0528
     12 C         140.6479  141.9062  168.1781 C.ar    1  UNL1        0.0002
     13 C         141.8780  143.2076  170.0603 C.2     1  UNL1        0.2427
     14 N         143.1410  143.4688  170.8263 N.am    1  UNL1       -0.3253
     15 O         140.7077  144.1345  170.2056 O.2     1  UNL1       -0.2704
     16 H         143.9092  142.8605  170.7310 H       1  UNL1        0.1453
     17 H         143.2018  144.2485  171.4243 H       1  UNL1        0.1453
     18 C         138.4326  138.2314  165.9124 C.3     1  UNL1        0.0003
     19 C         138.7409  139.3773  166.8300 C.3     1  UNL1        0.0041
     20 C         138.1971  143.5551  162.3096 C.3     1  UNL1        0.0999
     21 C         139.2777  144.1224  161.4377 C.3     1  UNL1        0.1110
     22 O         138.9362  145.4121  162.1233 O.3     1  UNL1       -0.3847
     23 C         140.2870  144.9594  160.7091 C.3     1  UNL1        0.0546
     24 C         141.0264  144.0684  159.7555 C.ar    1  UNL1       -0.0237
     25 C         142.1313  144.3413  158.7784 C.ar    1  UNL1       -0.0045
     26 C         142.6838  143.2266  157.9405 C.ar    1  UNL1       -0.0003
     27 C         142.1315  141.8390  158.0797 C.ar    1  UNL1       -0.0003
     28 C         141.0266  141.5660  159.0568 C.ar    1  UNL1       -0.0045
     29 C         140.4741  142.6807  159.8947 C.ar    1  UNL1       -0.0237
     30 C         139.3934  142.7142  160.9344 C.3     1  UNL1        0.0546
     31 H         139.5032  146.1206  161.7805 H       1  UNL1        0.2103
@<TRIPOS>BOND
     1    18    19    1
     2     1    19    1
     3     1     7    1
     4     7     8   ar
     5     8     9   ar
     6     9    10   ar
     7    10    11   ar
     8    11    13    1
     9    13    14   am
    10    13    15    2
    11    11    12   ar
    12     1     2    1
    13     2     3    1
    14     3     4    1
    15     4    20    1
    16    20    21    1
    17    21    22    1
    18    21    23    1
    19    23    24    1
    20    24    25   ar
    21    25    26   ar
    22    26    27   ar
    23    27    28   ar
    24    28    29   ar
    25    29    30    1
    26     4     5    1
    27     6     5    1
    28     6     1    1
    29    12     7   ar
    30     6     2    1
    31    30    21    1
    32    29    24   ar
    33    14    16    1
    34    14    17    1
    35    22    31    1
@<TRIPOS>MOLECULE
*****
 31 35 0 0 0
SMALL
GASTEIGER

@<TRIPOS>ATOM
      1 C         141.4884  139.6098  166.4204 C.3     1  UNL1        0.0216
      2 C         140.8605  139.5825  165.0585 C.3     1  UNL1        0.0214
      3 C         140.0115  139.7328  163.8310 C.3     1  UNL1        0.0725
      4 N         138.8239  140.5761  164.1891 N.3     1  UNL1       -0.2707
      5 C         138.9387  140.9470  165.6379 C.3     1  UNL1        0.0725
      6 C         140.1973  140.3330  166.1753 C.3     1  UNL1        0.0214
      7 C         141.6927  139.9263  167.8724 C.ar    1  UNL1       -0.0226
      8 C         142.6160  139.0834  168.7012 C.ar    1  UNL1       -0.0043
      9 C         142.8203  139.4000  170.1531 C.ar    1  UNL1       -0.0002
     10 C         142.1012  140.5596  170.7762 C.ar    1  UNL1        0.0045
     11 C         141.1779  141.4025  169.9474 C.ar    1  UNL1        0.0528
     12 C         140.9736  141.0859  168.4955 C.ar    1  UNL1        0.0002
     13 C         140.4588  142.5621  170.5706 C.2     1  UNL1        0.2427
     14 N         140.1043  143.7593  169.7391 N.am    1  UNL1       -0.3253
     15 O         140.0942  142.5247  172.0251 O.2     1  UNL1       -0.2704
     16 H         140.3436  143.7839  168.7845 H       1  UNL1        0.1453
     17 H         139.6323  144.5203  170.1481 H       1  UNL1        0.1453
     18 C         143.6606  139.1605  165.0677 C.3     1  UNL1        0.0003
     19 C         142.7085  138.7767  166.1614 C.3     1  UNL1        0.0041
     20 C         137.7159  140.9779  163.2612 C.3     1  UNL1        0.0999
     21 C         138.0177  141.2989  161.8274 C.3     1  UNL1        0.1110
     22 O         137.3138  140.0031  161.5531 O.3     1  UNL1       -0.3847
     23 C         138.1723  141.3491  160.3362 C.3     1  UNL1        0.0546
     24 C         138.9087  142.6089  159.9887 C.ar    1  UNL1       -0.0237
     25 C         139.3444  143.1868  158.6749 C.ar    1  UNL1       -0.0045
     26 C         140.0806  144.4932  158.6375 C.ar    1  UNL1       -0.0003
     27 C         140.3811  145.2216  159.9139 C.ar    1  UNL1       -0.0003
     28 C         139.9453  144.6436  161.2276 C.ar    1  UNL1       -0.0045
     29 C         139.2091  143.3373  161.2651 C.ar    1  UNL1       -0.0237
     30 C         138.6585  142.5277  162.4014 C.3     1  UNL1        0.0546
     31 H         137.3020  139.8375  160.5974 H       1  UNL1        0.2103
@<TRIPOS>BOND
     1    18    19    1
     2     1    19    1
     3     1     7    1
     4     7     8   ar
     5     8     9   ar
     6     9    10   ar
     7    10    11   ar
     8    11    13    1
     9    13    14   am
    10    13    15    2
    11    11    12   ar
    12     1     2    1
    13     2     3    1
    14     3     4    1
    15     4    20    1
    16    20    21    1
    17    21    22    1
    18    21    23    1
    19    23    24    1
    20    24    25   ar
    21    25    26   ar
    22    26    27   ar
    23    27    28   ar
    24    28    29   ar
    25    29    30    1
    26     4     5    1
    27     6     5    1
    28     6     1    1
    29    12     7   ar
    30     6     2    1
    31    30    21    1
    32    29    24   ar
    33    14    16    1
    34    14    17    1
    35    22    31    1
@<TRIPOS>MOLECULE
*****
 31 35 0 0 0
SMALL
GASTEIGER

@<TRIPOS>ATOM
      1 C         139.2628  139.9770  165.8092 C.3     1  UNL1        0.0216
      2 C         138.3412  140.6813  164.8583 C.3     1  UNL1        0.0214
      3 C         137.6294  141.6181  163.9278 C.3     1  UNL1        0.0725
      4 N         138.4395  142.8765  163.8275 N.3     1  UNL1       -0.2707
      5 C         139.6522  142.7175  164.6959 C.3     1  UNL1        0.0725
      6 C         139.5914  141.3608  165.3329 C.3     1  UNL1        0.0214
      7 C         140.4406  139.7224  166.7026 C.ar    1  UNL1       -0.0226
      8 C         140.3770  140.0990  168.1532 C.ar    1  UNL1       -0.0043
      9 C         141.5548  139.8443  169.0465 C.ar    1  UNL1       -0.0002
     10 C         142.7962  139.2131  168.4892 C.ar    1  UNL1        0.0045
     11 C         142.8598  138.8365  167.0387 C.ar    1  UNL1        0.0528
     12 C         141.6819  139.0911  166.1454 C.ar    1  UNL1        0.0002
     13 C         144.1011  138.2053  166.4814 C.2     1  UNL1        0.2427
     14 N         144.7366  138.7656  165.2436 N.am    1  UNL1       -0.3253
     15 O         144.7071  137.0138  167.1619 O.2     1  UNL1       -0.2704
     16 H         144.3389  139.5476  164.7969 H       1  UNL1        0.1453
     17 H         145.5514  138.3513  164.8778 H       1  UNL1        0.1453
     18 C         137.5392  138.5178  167.0937 C.3     1  UNL1        0.0003
     19 C         138.5252  138.6815  165.9753 C.3     1  UNL1        0.0041
     20 C         138.0972  144.0822  163.0034 C.3     1  UNL1        0.0999
     21 C         139.1372  144.7086  162.1226 C.3     1  UNL1        0.1110
     22 O         139.2235  145.7300  163.2177 O.3     1  UNL1       -0.3847
     23 C         140.1953  145.5484  161.4707 C.3     1  UNL1        0.0546
     24 C         140.5457  144.9151  160.1568 C.ar    1  UNL1       -0.0237
     25 C         141.5223  145.3006  159.0855 C.ar    1  UNL1       -0.0045
     26 C         141.6573  144.4547  157.8542 C.ar    1  UNL1       -0.0003
     27 C         140.8157  143.2235  157.6941 C.ar    1  UNL1       -0.0003
     28 C         139.8391  142.8380  158.7653 C.ar    1  UNL1       -0.0045
     29 C         139.7041  143.6839  159.9967 C.ar    1  UNL1       -0.0237
     30 C         138.8336  143.5562  161.2116 C.3     1  UNL1        0.0546
     31 H         139.8852  146.3996  162.9839 H       1  UNL1        0.2103
@<TRIPOS>BOND
     1    18    19    1
     2     1    19    1
     3     1     7    1
     4     7     8   ar
     5     8     9   ar
     6     9    10   ar
     7    10    11   ar
     8    11    13    1
     9    13    14   am
    10    13    15    2
    11    11    12   ar
    12     1     2    1
    13     2     3    1
    14     3     4    1
    15     4    20    1
    16    20    21    1
    17    21    22    1
    18    21    23    1
    19    23    24    1
    20    24    25   ar
    21    25    26   ar
    22    26    27   ar
    23    27    28   ar
    24    28    29   ar
    25    29    30    1
    26     4     5    1
    27     6     5    1
    28     6     1    1
    29    12     7   ar
    30     6     2    1
    31    30    21    1
    32    29    24   ar
    33    14    16    1
    34    14    17    1
    35    22    31    1
