@<TRIPOS>MOLECULE
*****
 25 28 0 0 0
SMALL
GASTEIGER

@<TRIPOS>ATOM
      1 N         143.6289  144.0061  171.4440 N.pl3   1  UNL1       -0.3375
      2 C         143.0093  143.1910  170.3478 C.ar    1  UNL1        0.1567
      3 N         143.7017  142.7114  169.1065 N.ar    1  UNL1       -0.2245
      4 C         142.7088  141.9364  168.2920 C.ar    1  UNL1        0.0889
      5 C         142.8252  141.2301  166.9738 C.ar    1  UNL1        0.0151
      6 C         141.6355  140.5245  166.3933 C.ar    1  UNL1       -0.0232
      7 C         140.3296  140.5251  167.1311 C.ar    1  UNL1       -0.0241
      8 C         140.2132  141.2313  168.4493 C.ar    1  UNL1        0.0035
      9 C         141.4028  141.9369  169.0298 C.ar    1  UNL1        0.0494
     10 S         141.5885  142.7124  170.3003 S.2     1  UNL1       -0.0520
     11 C         139.0308  139.8882  166.7341 C.3     1  UNL1        0.0434
     12 C         138.7174  139.0933  165.5011 C.3     1  UNL1        0.0771
     13 N         139.6252  138.7392  164.3609 N.3     1  UNL1       -0.2683
     14 C         141.0708  139.0923  164.1718 C.3     1  UNL1        0.0771
     15 C         141.9655  139.8868  165.0763 C.3     1  UNL1        0.0434
     16 H         144.5746  144.2733  171.3843 H       1  UNL1        0.1442
     17 H         143.0899  144.2740  172.2230 H       1  UNL1        0.1442
     18 C         139.0056  137.9240  163.2647 C.3     1  UNL1        0.0992
     19 C         138.8759  138.4979  161.8848 C.ar    1  UNL1       -0.0039
     20 C         137.7481  139.4337  161.5648 C.ar    1  UNL1       -0.0028
     21 C         137.6184  140.0076  160.1850 C.ar    1  UNL1        0.0020
     22 C         138.6165  139.6457  159.1253 C.ar    1  UNL1        0.0296
     23 C         139.7443  138.7099  159.4454 C.ar    1  UNL1        0.1399
     24 F         140.7423  138.3481  158.3857 F       1  UNL1       -0.2042
     25 C         139.8740  138.1360  160.8251 C.ar    1  UNL1        0.0267
@<TRIPOS>BOND
     1     1     2    1
     2     2     3   ar
     3     3     4   ar
     4     4     5   ar
     5     5     6   ar
     6     6     7   ar
     7     7     8   ar
     8     8     9   ar
     9     9    10   ar
    10     7    11    1
    11    11    12    1
    12    12    13    1
    13    13    18    1
    14    18    19    1
    15    19    20   ar
    16    20    21   ar
    17    21    22   ar
    18    22    23   ar
    19    23    24    1
    20    23    25   ar
    21    13    14    1
    22    14    15    1
    23    10     2   ar
    24    25    19   ar
    25     9     4   ar
    26    15     6    1
    27     1    16    1
    28     1    17    1
@<TRIPOS>MOLECULE
*****
 25 28 0 0 0
SMALL
GASTEIGER

@<TRIPOS>ATOM
      1 N         143.3499  143.7679  171.4650 N.pl3   1  UNL1       -0.3375
      2 C         142.7467  142.9774  170.3419 C.ar    1  UNL1        0.1567
      3 N         141.4209  143.2403  169.6912 N.ar    1  UNL1       -0.2245
      4 C         141.2184  142.2107  168.6194 C.ar    1  UNL1        0.0889
      5 C         140.0957  141.9758  167.6527 C.ar    1  UNL1        0.0151
      6 C         140.1737  140.8416  166.6741 C.ar    1  UNL1       -0.0232
      7 C         141.3742  139.9424  166.6623 C.ar    1  UNL1       -0.0241
      8 C         142.4968  140.1773  167.6290 C.ar    1  UNL1        0.0035
      9 C         142.4189  141.3114  168.6076 C.ar    1  UNL1        0.0494
     10 S         143.3634  141.7854  169.6721 S.2     1  UNL1       -0.0520
     11 C         141.6512  138.7637  165.7768 C.3     1  UNL1        0.0434
     12 C         140.7960  138.1932  164.6844 C.3     1  UNL1        0.0771
     13 N         139.4528  138.6605  164.2078 N.3     1  UNL1       -0.2683
     14 C         138.6328  139.8136  164.7057 C.3     1  UNL1        0.0771
     15 C         138.9536  140.7843  165.8033 C.3     1  UNL1        0.0434
     16 H         142.8654  144.5384  171.8403 H       1  UNL1        0.1442
     17 H         144.2302  143.5161  171.8269 H       1  UNL1        0.1442
     18 C         138.8496  137.8700  163.0846 C.3     1  UNL1        0.0992
     19 C         138.8499  138.4261  161.6914 C.ar    1  UNL1       -0.0039
     20 C         137.7369  139.3262  161.2430 C.ar    1  UNL1       -0.0028
     21 C         137.7371  139.8822  159.8499 C.ar    1  UNL1        0.0020
     22 C         138.8503  139.5381  158.9052 C.ar    1  UNL1        0.0296
     23 C         139.9633  138.6379  159.3536 C.ar    1  UNL1        0.1399
     24 F         141.0765  138.2938  158.4089 F       1  UNL1       -0.2042
     25 C         139.9631  138.0819  160.7467 C.ar    1  UNL1        0.0267
@<TRIPOS>BOND
     1     1     2    1
     2     2     3   ar
     3     3     4   ar
     4     4     5   ar
     5     5     6   ar
     6     6     7   ar
     7     7     8   ar
     8     8     9   ar
     9     9    10   ar
    10     7    11    1
    11    11    12    1
    12    12    13    1
    13    13    18    1
    14    18    19    1
    15    19    20   ar
    16    20    21   ar
    17    21    22   ar
    18    22    23   ar
    19    23    24    1
    20    23    25   ar
    21    13    14    1
    22    14    15    1
    23    10     2   ar
    24    25    19   ar
    25     9     4   ar
    26    15     6    1
    27     1    16    1
    28     1    17    1
@<TRIPOS>MOLECULE
*****
 25 28 0 0 0
SMALL
GASTEIGER

@<TRIPOS>ATOM
      1 N         140.3419  142.5074  171.8532 N.pl3   1  UNL1       -0.3375
      2 C         140.1770  142.0114  170.4472 C.ar    1  UNL1        0.1567
      3 N         139.5825  140.6957  170.0403 N.ar    1  UNL1       -0.2245
      4 C         139.6157  140.6153  168.5429 C.ar    1  UNL1        0.0889
      5 C         139.1653  139.5528  167.5846 C.ar    1  UNL1        0.0151
      6 C         139.3300  139.7563  166.1076 C.ar    1  UNL1       -0.0232
      7 C         139.9450  141.0222  165.5890 C.ar    1  UNL1       -0.0241
      8 C         140.3954  142.0847  166.5472 C.ar    1  UNL1        0.0035
      9 C         140.2307  141.8813  168.0242 C.ar    1  UNL1        0.0494
     10 S         140.5776  142.7441  169.2011 S.2     1  UNL1       -0.0520
     11 C         140.1996  141.4239  164.1663 C.3     1  UNL1        0.0434
     12 C         139.9019  140.6586  162.9109 C.3     1  UNL1        0.0771
     13 N         139.2762  139.3029  162.7683 N.3     1  UNL1       -0.2683
     14 C         138.7937  138.3774  163.8456 C.3     1  UNL1        0.0771
     15 C         138.8176  138.5792  165.3318 C.3     1  UNL1        0.0434
     16 H         140.0465  141.9506  172.6094 H       1  UNL1        0.1442
     17 H         140.7457  143.3897  172.0198 H       1  UNL1        0.1442
     18 C         139.1113  138.8069  161.3623 C.3     1  UNL1        0.0992
     19 C         140.3200  138.5111  160.5246 C.ar    1  UNL1       -0.0039
     20 C         140.2664  138.7004  159.0375 C.ar    1  UNL1       -0.0028
     21 C         141.4750  138.4047  158.1998 C.ar    1  UNL1        0.0020
     22 C         142.7372  137.9196  158.8491 C.ar    1  UNL1        0.0296
     23 C         142.7908  137.7303  160.3362 C.ar    1  UNL1        0.1399
     24 F         144.0529  137.2452  160.9855 F       1  UNL1       -0.2042
     25 C         141.5822  138.0261  161.1739 C.ar    1  UNL1        0.0267
@<TRIPOS>BOND
     1     1     2    1
     2     2     3   ar
     3     3     4   ar
     4     4     5   ar
     5     5     6   ar
     6     6     7   ar
     7     7     8   ar
     8     8     9   ar
     9     9    10   ar
    10     7    11    1
    11    11    12    1
    12    12    13    1
    13    13    18    1
    14    18    19    1
    15    19    20   ar
    16    20    21   ar
    17    21    22   ar
    18    22    23   ar
    19    23    24    1
    20    23    25   ar
    21    13    14    1
    22    14    15    1
    23    10     2   ar
    24    25    19   ar
    25     9     4   ar
    26    15     6    1
    27     1    16    1
    28     1    17    1
@<TRIPOS>MOLECULE
*****
 25 28 0 0 0
SMALL
GASTEIGER

@<TRIPOS>ATOM
      1 N         140.3436  142.3464  171.8092 N.pl3   1  UNL1       -0.3375
      2 C         140.1785  141.9013  170.3863 C.ar    1  UNL1        0.1567
      3 N         140.5608  142.6867  169.1668 N.ar    1  UNL1       -0.2245
      4 C         140.2207  141.8635  167.9599 C.ar    1  UNL1        0.0889
      5 C         140.3739  142.1252  166.4908 C.ar    1  UNL1        0.0151
      6 C         139.9347  141.0926  165.4953 C.ar    1  UNL1       -0.0232
      7 C         139.3423  139.7986  165.9689 C.ar    1  UNL1       -0.0241
      8 C         139.1890  139.5369  167.4379 C.ar    1  UNL1        0.0035
      9 C         139.6282  140.5694  168.4334 C.ar    1  UNL1        0.0494
     10 S         139.6022  140.5928  169.9330 S.2     1  UNL1       -0.0520
     11 C         138.8438  138.6436  165.1516 C.3     1  UNL1        0.0434
     12 C         138.8147  138.4978  163.6589 C.3     1  UNL1        0.0771
     13 N         139.2768  139.4706  162.6151 N.3     1  UNL1       -0.2683
     14 C         139.8822  140.8297  162.8057 C.3     1  UNL1        0.0771
     15 C         140.1750  141.5516  164.0876 C.3     1  UNL1        0.0434
     16 H         140.7345  143.2280  172.0070 H       1  UNL1        0.1442
     17 H         140.0611  141.7569  172.5453 H       1  UNL1        0.1442
     18 C         139.1117  139.0255  161.1921 C.3     1  UNL1        0.0992
     19 C         140.3100  138.6048  160.3940 C.ar    1  UNL1       -0.0039
     20 C         140.2602  138.6325  158.8950 C.ar    1  UNL1       -0.0028
     21 C         141.4584  138.2118  158.0969 C.ar    1  UNL1        0.0020
     22 C         142.7066  137.7633  158.7976 C.ar    1  UNL1        0.0296
     23 C         142.7564  137.7356  160.2965 C.ar    1  UNL1        0.1399
     24 F         144.0046  137.2872  160.9973 F       1  UNL1       -0.2042
     25 C         141.5582  138.1563  161.0947 C.ar    1  UNL1        0.0267
@<TRIPOS>BOND
     1     1     2    1
     2     2     3   ar
     3     3     4   ar
     4     4     5   ar
     5     5     6   ar
     6     6     7   ar
     7     7     8   ar
     8     8     9   ar
     9     9    10   ar
    10     7    11    1
    11    11    12    1
    12    12    13    1
    13    13    18    1
    14    18    19    1
    15    19    20   ar
    16    20    21   ar
    17    21    22   ar
    18    22    23   ar
    19    23    24    1
    20    23    25   ar
    21    13    14    1
    22    14    15    1
    23    10     2   ar
    24    25    19   ar
    25     9     4   ar
    26    15     6    1
    27     1    16    1
    28     1    17    1
@<TRIPOS>MOLECULE
*****
 25 28 0 0 0
SMALL
GASTEIGER

@<TRIPOS>ATOM
      1 N         143.8414  139.5701  171.4515 N.pl3   1  UNL1       -0.3375
      2 C         143.0629  140.0244  170.2525 C.ar    1  UNL1        0.1567
      3 N         142.7207  139.1885  169.0549 N.ar    1  UNL1       -0.2245
      4 C         141.9362  140.0418  168.1029 C.ar    1  UNL1        0.0889
      5 C         141.3333  139.7536  166.7600 C.ar    1  UNL1        0.0151
      6 C         140.5877  140.8287  166.0262 C.ar    1  UNL1       -0.0232
      7 C         140.4450  142.1918  166.6354 C.ar    1  UNL1       -0.0241
      8 C         141.0478  142.4801  167.9783 C.ar    1  UNL1        0.0035
      9 C         141.7934  141.4051  168.7121 C.ar    1  UNL1        0.0494
     10 S         142.4898  141.3943  170.0406 S.2     1  UNL1       -0.0520
     11 C         139.7473  143.3971  166.0779 C.3     1  UNL1        0.0434
     12 C         139.0200  143.5366  164.7734 C.3     1  UNL1        0.0771
     13 N         138.8108  142.5054  163.7044 N.3     1  UNL1       -0.2683
     14 C         139.2772  141.0800  163.6757 C.3     1  UNL1        0.0771
     15 C         140.0680  140.3338  164.7090 C.3     1  UNL1        0.0434
     16 H         144.1780  138.6462  171.4987 H       1  UNL1        0.1442
     17 H         144.0158  140.1959  172.1912 H       1  UNL1        0.1442
     18 C         138.0323  142.9597  162.5054 C.3     1  UNL1        0.0992
     19 C         138.7367  143.2123  161.2053 C.ar    1  UNL1       -0.0039
     20 C         138.4284  142.3630  160.0079 C.ar    1  UNL1       -0.0028
     21 C         139.1327  142.6155  158.7079 C.ar    1  UNL1        0.0020
     22 C         140.1452  143.7174  158.6052 C.ar    1  UNL1        0.0296
     23 C         140.4535  144.5668  159.8026 C.ar    1  UNL1        0.1399
     24 F         141.4661  145.6687  159.6999 F       1  UNL1       -0.2042
     25 C         139.7492  144.3142  161.1026 C.ar    1  UNL1        0.0267
@<TRIPOS>BOND
     1     1     2    1
     2     2     3   ar
     3     3     4   ar
     4     4     5   ar
     5     5     6   ar
     6     6     7   ar
     7     7     8   ar
     8     8     9   ar
     9     9    10   ar
    10     7    11    1
    11    11    12    1
    12    12    13    1
    13    13    18    1
    14    18    19    1
    15    19    20   ar
    16    20    21   ar
    17    21    22   ar
    18    22    23   ar
    19    23    24    1
    20    23    25   ar
    21    13    14    1
    22    14    15    1
    23    10     2   ar
    24    25    19   ar
    25     9     4   ar
    26    15     6    1
    27     1    16    1
    28     1    17    1
@<TRIPOS>MOLECULE
*****
 25 28 0 0 0
SMALL
GASTEIGER

@<TRIPOS>ATOM
      1 N         143.0628  138.6608  156.3373 N.pl3   1  UNL1       -0.3375
      2 C         143.0218  138.7427  157.8345 C.ar    1  UNL1        0.1567
      3 N         143.9487  139.5443  158.6995 N.ar    1  UNL1       -0.2245
      4 C         143.5463  139.3344  160.1291 C.ar    1  UNL1        0.0889
      5 C         144.0986  139.8710  161.4164 C.ar    1  UNL1        0.0151
      6 C         143.4751  139.4762  162.7224 C.ar    1  UNL1       -0.0232
      7 C         142.2996  138.5448  162.7410 C.ar    1  UNL1       -0.0241
      8 C         141.7473  138.0081  161.4538 C.ar    1  UNL1        0.0035
      9 C         142.3707  138.4029  160.1478 C.ar    1  UNL1        0.0494
     10 S         142.0465  138.0372  158.7296 S.2     1  UNL1       -0.0520
     11 C         141.5345  138.0280  163.9233 C.3     1  UNL1        0.0434
     12 C         141.7560  138.3151  165.3788 C.3     1  UNL1        0.0771
     13 N         142.7974  139.1898  166.0115 N.3     1  UNL1       -0.2683
     14 C         143.8744  139.9935  165.3451 C.3     1  UNL1        0.0771
     15 C         144.1761  140.1210  163.8813 C.3     1  UNL1        0.0434
     16 H         143.7445  139.1633  155.8353 H       1  UNL1        0.1442
     17 H         142.4081  138.1045  155.8566 H       1  UNL1        0.1442
     18 C         142.7563  139.2717  167.5087 C.3     1  UNL1        0.0992
     19 C         141.8951  140.3000  168.1803 C.ar    1  UNL1       -0.0039
     20 C         142.3656  141.7206  168.2835 C.ar    1  UNL1       -0.0028
     21 C         141.5045  142.7489  168.9551 C.ar    1  UNL1        0.0020
     22 C         140.1729  142.3567  169.5235 C.ar    1  UNL1        0.0296
     23 C         139.7025  140.9361  169.4203 C.ar    1  UNL1        0.1399
     24 F         138.3709  140.5438  169.9887 F       1  UNL1       -0.2042
     25 C         140.5635  139.9078  168.7487 C.ar    1  UNL1        0.0267
@<TRIPOS>BOND
     1     1     2    1
     2     2     3   ar
     3     3     4   ar
     4     4     5   ar
     5     5     6   ar
     6     6     7   ar
     7     7     8   ar
     8     8     9   ar
     9     9    10   ar
    10     7    11    1
    11    11    12    1
    12    12    13    1
    13    13    18    1
    14    18    19    1
    15    19    20   ar
    16    20    21   ar
    17    21    22   ar
    18    22    23   ar
    19    23    24    1
    20    23    25   ar
    21    13    14    1
    22    14    15    1
    23    10     2   ar
    24    25    19   ar
    25     9     4   ar
    26    15     6    1
    27     1    16    1
    28     1    17    1
@<TRIPOS>MOLECULE
*****
 25 28 0 0 0
SMALL
GASTEIGER

@<TRIPOS>ATOM
      1 N         142.5599  140.6246  171.5898 N.pl3   1  UNL1       -0.3375
      2 C         142.0985  140.2818  170.2044 C.ar    1  UNL1        0.1567
      3 N         142.9587  139.7577  169.0929 N.ar    1  UNL1       -0.2245
      4 C         142.0876  139.5549  167.8887 C.ar    1  UNL1        0.0889
      5 C         142.3873  139.0587  166.5053 C.ar    1  UNL1        0.0151
      6 C         141.2883  138.9611  165.4890 C.ar    1  UNL1       -0.0232
      7 C         139.8898  139.3598  165.8562 C.ar    1  UNL1       -0.0241
      8 C         139.5900  139.8561  167.2396 C.ar    1  UNL1        0.0035
      9 C         140.6890  139.9536  168.2559 C.ar    1  UNL1        0.0494
     10 S         140.6957  140.4028  169.6871 S.2     1  UNL1       -0.0520
     11 C         138.6569  139.3404  165.0019 C.3     1  UNL1        0.0434
     12 C         138.5183  138.9174  163.5694 C.3     1  UNL1        0.0771
     13 N         139.5781  138.4095  162.6376 N.3     1  UNL1       -0.2683
     14 C         141.0385  138.1990  162.9078 C.3     1  UNL1        0.0771
     15 C         141.7996  138.4445  164.1768 C.3     1  UNL1        0.0434
     16 H         143.5063  140.5105  171.8358 H       1  UNL1        0.1442
     17 H         141.9163  140.9637  172.2532 H       1  UNL1        0.1442
     18 C         139.1167  138.0667  161.2521 C.3     1  UNL1        0.0992
     19 C         139.4104  138.9964  160.1121 C.ar    1  UNL1       -0.0039
     20 C         140.6406  138.7948  159.2778 C.ar    1  UNL1       -0.0028
     21 C         140.9344  139.7244  158.1379 C.ar    1  UNL1        0.0020
     22 C         139.9980  140.8557  157.8323 C.ar    1  UNL1        0.0296
     23 C         138.7678  141.0574  158.6666 C.ar    1  UNL1        0.1399
     24 F         137.8315  142.1887  158.3610 F       1  UNL1       -0.2042
     25 C         138.4741  140.1278  159.8065 C.ar    1  UNL1        0.0267
@<TRIPOS>BOND
     1     1     2    1
     2     2     3   ar
     3     3     4   ar
     4     4     5   ar
     5     5     6   ar
     6     6     7   ar
     7     7     8   ar
     8     8     9   ar
     9     9    10   ar
    10     7    11    1
    11    11    12    1
    12    12    13    1
    13    13    18    1
    14    18    19    1
    15    19    20   ar
    16    20    21   ar
    17    21    22   ar
    18    22    23   ar
    19    23    24    1
    20    23    25   ar
    21    13    14    1
    22    14    15    1
    23    10     2   ar
    24    25    19   ar
    25     9     4   ar
    26    15     6    1
    27     1    16    1
    28     1    17    1
@<TRIPOS>MOLECULE
*****
 25 28 0 0 0
SMALL
GASTEIGER

@<TRIPOS>ATOM
      1 N         138.5429  139.5258  157.0396 N.pl3   1  UNL1       -0.3375
      2 C         138.7687  139.5433  158.5225 C.ar    1  UNL1        0.1567
      3 N         137.7830  139.9948  159.5592 N.ar    1  UNL1       -0.2245
      4 C         138.4250  139.8429  160.9063 C.ar    1  UNL1        0.0889
      5 C         137.9293  140.1308  162.2925 C.ar    1  UNL1        0.0151
      6 C         138.8161  139.8732  163.4746 C.ar    1  UNL1       -0.0232
      7 C         140.1984  139.3279  163.2705 C.ar    1  UNL1       -0.0241
      8 C         140.6941  139.0401  161.8844 C.ar    1  UNL1        0.0035
      9 C         139.8074  139.2976  160.7022 C.ar    1  UNL1        0.0494
     10 S         140.0198  139.1124  159.2289 S.2     1  UNL1       -0.0520
     11 C         141.2369  139.0016  164.3026 C.3     1  UNL1        0.0434
     12 C         141.1494  139.1400  165.7937 C.3     1  UNL1        0.0771
     13 N         140.0019  139.6389  166.6208 N.3     1  UNL1       -0.2683
     14 C         138.6584  140.1227  166.1614 C.3     1  UNL1        0.0771
     15 C         138.1307  140.2269  164.7612 C.3     1  UNL1        0.0434
     16 H         137.6830  139.8301  156.6690 H       1  UNL1        0.1442
     17 H         139.2545  139.2101  156.4371 H       1  UNL1        0.1442
     18 C         140.2277  139.6564  168.1036 C.3     1  UNL1        0.0992
     19 C         141.0147  140.7696  168.7295 C.ar    1  UNL1       -0.0039
     20 C         142.4669  140.5733  169.0501 C.ar    1  UNL1       -0.0028
     21 C         143.2538  141.6863  169.6759 C.ar    1  UNL1        0.0020
     22 C         142.5887  142.9957  169.9810 C.ar    1  UNL1        0.0296
     23 C         141.1366  143.1921  169.6603 C.ar    1  UNL1        0.1399
     24 F         140.4715  144.5015  169.9655 F       1  UNL1       -0.2042
     25 C         140.3496  142.0790  169.0346 C.ar    1  UNL1        0.0267
@<TRIPOS>BOND
     1     1     2    1
     2     2     3   ar
     3     3     4   ar
     4     4     5   ar
     5     5     6   ar
     6     6     7   ar
     7     7     8   ar
     8     8     9   ar
     9     9    10   ar
    10     7    11    1
    11    11    12    1
    12    12    13    1
    13    13    18    1
    14    18    19    1
    15    19    20   ar
    16    20    21   ar
    17    21    22   ar
    18    22    23   ar
    19    23    24    1
    20    23    25   ar
    21    13    14    1
    22    14    15    1
    23    10     2   ar
    24    25    19   ar
    25     9     4   ar
    26    15     6    1
    27     1    16    1
    28     1    17    1
@<TRIPOS>MOLECULE
*****
 25 28 0 0 0
SMALL
GASTEIGER

@<TRIPOS>ATOM
      1 N         143.6715  139.6936  171.4519 N.pl3   1  UNL1       -0.3375
      2 C         142.9058  140.1056  170.2296 C.ar    1  UNL1        0.1567
      3 N         143.2435  141.2512  169.3221 N.ar    1  UNL1       -0.2245
      4 C         142.2144  141.2979  168.2319 C.ar    1  UNL1        0.0889
      5 C         142.0382  142.2131  167.0565 C.ar    1  UNL1        0.0151
      6 C         140.8881  142.0115  166.1148 C.ar    1  UNL1       -0.0232
      7 C         139.9144  140.8948  166.3484 C.ar    1  UNL1       -0.0241
      8 C         140.0905  139.9796  167.5237 C.ar    1  UNL1        0.0035
      9 C         141.2405  140.1812  168.4655 C.ar    1  UNL1        0.0494
     10 S         141.6679  139.4443  169.7002 S.2     1  UNL1       -0.0520
     11 C         138.7085  140.5206  165.5385 C.3     1  UNL1        0.0434
     12 C         138.1787  141.1708  164.2948 C.3     1  UNL1        0.0771
     13 N         138.7238  142.3556  163.5541 N.3     1  UNL1       -0.2683
     14 C         139.9334  143.1831  163.8738 C.3     1  UNL1        0.0771
     15 C         140.8966  143.0299  165.0135 C.3     1  UNL1        0.0434
     16 H         144.4763  140.1931  171.7202 H       1  UNL1        0.1442
     17 H         143.3692  138.9236  171.9858 H       1  UNL1        0.1442
     18 C         137.9581  142.7676  162.3318 C.3     1  UNL1        0.0992
     19 C         138.4646  142.3975  160.9692 C.ar    1  UNL1       -0.0039
     20 C         139.0982  143.4396  160.0959 C.ar    1  UNL1       -0.0028
     21 C         139.6046  143.0696  158.7335 C.ar    1  UNL1        0.0020
     22 C         139.4776  141.6573  158.2442 C.ar    1  UNL1        0.0296
     23 C         138.8440  140.6151  159.1174 C.ar    1  UNL1        0.1399
     24 F         138.7170  139.2029  158.6281 F       1  UNL1       -0.2042
     25 C         138.3376  140.9852  160.4799 C.ar    1  UNL1        0.0267
@<TRIPOS>BOND
     1     1     2    1
     2     2     3   ar
     3     3     4   ar
     4     4     5   ar
     5     5     6   ar
     6     6     7   ar
     7     7     8   ar
     8     8     9   ar
     9     9    10   ar
    10     7    11    1
    11    11    12    1
    12    12    13    1
    13    13    18    1
    14    18    19    1
    15    19    20   ar
    16    20    21   ar
    17    21    22   ar
    18    22    23   ar
    19    23    24    1
    20    23    25   ar
    21    13    14    1
    22    14    15    1
    23    10     2   ar
    24    25    19   ar
    25     9     4   ar
    26    15     6    1
    27     1    16    1
    28     1    17    1
