@<TRIPOS>MOLECULE
*****
 19 20 0 0 0
SMALL
GASTEIGER

@<TRIPOS>ATOM
      1 O         141.6463  141.0664  167.3948 O.3     1  UNL1       -0.4676
      2 C         141.3886  142.1678  166.4095 C.ar    1  UNL1        0.1410
      3 C         140.0725  142.8872  166.4160 C.ar    1  UNL1        0.0484
      4 C         139.8149  143.9885  165.4308 C.ar    1  UNL1        0.0614
      5 CL        138.4987  144.7080  165.4373 Cl      1  UNL1       -0.0821
      6 C         140.8735  144.3704  164.4390 C.ar    1  UNL1        0.0219
      7 C         142.1896  143.6510  164.4325 C.ar    1  UNL1        0.0723
      8 C         142.4472  142.5496  165.4178 C.ar    1  UNL1        0.0472
      9 C         143.2482  144.0328  163.4408 C.1     1  UNL1        0.1005
     10 N         144.3068  144.4147  162.4490 N.1     1  UNL1       -0.1908
     11 C         140.6710  141.1107  169.8831 C.2     1  UNL1        0.1032
     12 N         139.4390  140.5736  170.5492 N.2     1  UNL1       -0.1533
     13 N         138.6227  139.8632  169.5103 N.2     1  UNL1       -0.1533
     14 C         139.3502  139.9614  168.2023 C.2     1  UNL1        0.1032
     15 C         140.6161  140.7324  168.4326 C.3     1  UNL1        0.2405
     16 C         142.1031  143.2702  170.0712 C.3     1  UNL1        0.0065
     17 C         141.7656  141.8894  170.5504 C.3     1  UNL1        0.0472
     18 C         138.8922  139.3891  166.8936 C.3     1  UNL1        0.0472
     19 C         137.7269  138.4454  166.8544 C.3     1  UNL1        0.0065
@<TRIPOS>BOND
     1    16    17    1
     2    17    11    1
     3    11    12    2
     4    12    13    1
     5    13    14    2
     6    14    18    1
     7    18    19    1
     8    14    15    1
     9    15     1    1
    10     1     2    1
    11     2     3   ar
    12     3     4   ar
    13     4     5    1
    14     4     6   ar
    15     6     7   ar
    16     7     9    1
    17     9    10    3
    18     7     8   ar
    19    15    11    1
    20     8     2   ar
@<TRIPOS>MOLECULE
*****
 19 20 0 0 0
SMALL
GASTEIGER

@<TRIPOS>ATOM
      1 O         142.0980  141.7625  165.4644 O.3     1  UNL1       -0.4676
      2 C         141.9830  141.7011  166.9588 C.ar    1  UNL1        0.1410
      3 C         143.1069  142.1986  167.8186 C.ar    1  UNL1        0.0484
      4 C         142.9918  142.1372  169.3129 C.ar    1  UNL1        0.0614
      5 CL        144.1157  142.6347  170.1728 Cl      1  UNL1       -0.0821
      6 C         141.7528  141.5783  169.9473 C.ar    1  UNL1        0.0219
      7 C         140.6289  141.0808  169.0875 C.ar    1  UNL1        0.0723
      8 C         140.7440  141.1422  167.5932 C.ar    1  UNL1        0.0472
      9 C         139.3899  140.5219  169.7220 C.1     1  UNL1        0.1005
     10 N         138.1510  139.9630  170.3565 N.1     1  UNL1       -0.1908
     11 C         144.1002  140.2780  164.4988 C.2     1  UNL1        0.1032
     12 N         145.4176  140.5708  163.8440 N.2     1  UNL1       -0.1533
     13 N         145.5664  142.0604  163.7478 N.2     1  UNL1       -0.1533
     14 C         144.3410  142.6880  164.3431 C.2     1  UNL1        0.1032
     15 C         143.4348  141.5865  164.8072 C.3     1  UNL1        0.2405
     16 C         143.5293  138.4012  166.2022 C.3     1  UNL1        0.0065
     17 C         143.5456  138.9158  164.7933 C.3     1  UNL1        0.0472
     18 C         144.0695  144.1590  164.4547 C.3     1  UNL1        0.0472
     19 C         143.2681  144.8563  163.3956 C.3     1  UNL1        0.0065
@<TRIPOS>BOND
     1    16    17    1
     2    17    11    1
     3    11    12    2
     4    12    13    1
     5    13    14    2
     6    14    18    1
     7    18    19    1
     8    14    15    1
     9    15     1    1
    10     1     2    1
    11     2     3   ar
    12     3     4   ar
    13     4     5    1
    14     4     6   ar
    15     6     7   ar
    16     7     9    1
    17     9    10    3
    18     7     8   ar
    19    15    11    1
    20     8     2   ar
@<TRIPOS>MOLECULE
*****
 19 20 0 0 0
SMALL
GASTEIGER

@<TRIPOS>ATOM
      1 O         141.3353  141.1111  167.0908 O.3     1  UNL1       -0.4676
      2 C         141.1161  142.2568  166.1477 C.ar    1  UNL1        0.1410
      3 C         139.7863  142.9495  166.1055 C.ar    1  UNL1        0.0484
      4 C         139.5671  144.0951  165.1624 C.ar    1  UNL1        0.0614
      5 CL        138.2373  144.7879  165.1202 Cl      1  UNL1       -0.0821
      6 C         140.6776  144.5480  164.2615 C.ar    1  UNL1        0.0219
      7 C         142.0074  143.8553  164.3037 C.ar    1  UNL1        0.0723
      8 C         142.2266  142.7097  165.2468 C.ar    1  UNL1        0.0472
      9 C         143.1179  144.3082  163.4028 C.1     1  UNL1        0.1005
     10 N         144.2284  144.7611  162.5019 N.1     1  UNL1       -0.1908
     11 C         139.1791  139.8181  167.9985 C.2     1  UNL1        0.1032
     12 N         138.4043  139.8193  169.2829 N.2     1  UNL1       -0.1533
     13 N         139.0555  140.7966  170.2162 N.2     1  UNL1       -0.1533
     14 C         140.2327  141.3994  169.5086 C.2     1  UNL1        0.1032
     15 C         140.3091  140.7947  168.1380 C.3     1  UNL1        0.2405
     16 C         137.6878  138.0722  166.7830 C.3     1  UNL1        0.0065
     17 C         138.8770  138.9865  166.7874 C.3     1  UNL1        0.0472
     18 C         141.1690  142.4266  170.0725 C.3     1  UNL1        0.0472
     19 C         140.8306  143.8846  169.9739 C.3     1  UNL1        0.0065
@<TRIPOS>BOND
     1    16    17    1
     2    17    11    1
     3    11    12    2
     4    12    13    1
     5    13    14    2
     6    14    18    1
     7    18    19    1
     8    14    15    1
     9    15     1    1
    10     1     2    1
    11     2     3   ar
    12     3     4   ar
    13     4     5    1
    14     4     6   ar
    15     6     7   ar
    16     7     9    1
    17     9    10    3
    18     7     8   ar
    19    15    11    1
    20     8     2   ar
@<TRIPOS>MOLECULE
*****
 19 20 0 0 0
SMALL
GASTEIGER

@<TRIPOS>ATOM
      1 O         142.1015  141.8315  165.4490 O.3     1  UNL1       -0.4676
      2 C         142.0004  141.7432  166.9430 C.ar    1  UNL1        0.1410
      3 C         143.1369  142.2148  167.8008 C.ar    1  UNL1        0.0484
      4 C         143.0358  142.1265  169.2947 C.ar    1  UNL1        0.0614
      5 CL        144.1724  142.5981  170.1526 Cl      1  UNL1       -0.0821
      6 C         141.7982  141.5665  169.9309 C.ar    1  UNL1        0.0219
      7 C         140.6617  141.0949  169.0731 C.ar    1  UNL1        0.0723
      8 C         140.7628  141.1832  167.5792 C.ar    1  UNL1        0.0472
      9 C         139.4240  140.5349  169.7093 C.1     1  UNL1        0.1005
     10 N         138.1864  139.9750  170.3455 N.1     1  UNL1       -0.1908
     11 C         144.3435  142.6984  164.2800 C.2     1  UNL1        0.1032
     12 N         145.5468  142.0393  163.6736 N.2     1  UNL1       -0.1533
     13 N         145.3707  140.5543  163.7918 N.2     1  UNL1       -0.1533
     14 C         144.0586  140.2958  164.4713 C.2     1  UNL1        0.1032
     15 C         143.4238  141.6209  164.7730 C.3     1  UNL1        0.2405
     16 C         142.9623  144.8000  163.6278 C.3     1  UNL1        0.0065
     17 C         144.1024  144.1758  164.3764 C.3     1  UNL1        0.0472
     18 C         143.4826  138.9486  164.7926 C.3     1  UNL1        0.0472
     19 C         143.5613  138.4134  166.1917 C.3     1  UNL1        0.0065
@<TRIPOS>BOND
     1    16    17    1
     2    17    11    1
     3    11    12    2
     4    12    13    1
     5    13    14    2
     6    14    18    1
     7    18    19    1
     8    14    15    1
     9    15     1    1
    10     1     2    1
    11     2     3   ar
    12     3     4   ar
    13     4     5    1
    14     4     6   ar
    15     6     7   ar
    16     7     9    1
    17     9    10    3
    18     7     8   ar
    19    15    11    1
    20     8     2   ar
@<TRIPOS>MOLECULE
*****
 19 20 0 0 0
SMALL
GASTEIGER

@<TRIPOS>ATOM
      1 O         141.7632  141.9383  165.2895 O.3     1  UNL1       -0.4676
      2 C         141.7500  141.7925  166.7824 C.ar    1  UNL1        0.1410
      3 C         142.9468  142.2052  167.5868 C.ar    1  UNL1        0.0484
      4 C         142.9336  142.0594  169.0796 C.ar    1  UNL1        0.0614
      5 CL        144.1305  142.4722  169.8842 Cl      1  UNL1       -0.0821
      6 C         141.7236  141.5010  169.7680 C.ar    1  UNL1        0.0219
      7 C         140.5267  141.0883  168.9636 C.ar    1  UNL1        0.0723
      8 C         140.5399  141.2340  167.4708 C.ar    1  UNL1        0.0472
      9 C         139.3166  140.5298  169.6519 C.1     1  UNL1        0.1005
     10 N         138.1066  139.9713  170.3403 N.1     1  UNL1       -0.1908
     11 C         141.1899  144.3219  164.2242 C.2     1  UNL1        0.1032
     12 N         141.9972  145.4542  163.6620 N.2     1  UNL1       -0.1533
     13 N         143.4472  145.0819  163.7576 N.2     1  UNL1       -0.1533
     14 C         143.5359  143.7195  164.3789 C.2     1  UNL1        0.1032
     15 C         142.1409  143.2498  164.6673 C.3     1  UNL1        0.2405
     16 C         139.0193  144.5911  165.6263 C.3     1  UNL1        0.0065
     17 C         139.6942  144.2707  164.3256 C.3     1  UNL1        0.0472
     18 C         144.7982  142.9602  164.6620 C.3     1  UNL1        0.0472
     19 C         145.3602  142.0279  163.6300 C.3     1  UNL1        0.0065
@<TRIPOS>BOND
     1    16    17    1
     2    17    11    1
     3    11    12    2
     4    12    13    1
     5    13    14    2
     6    14    18    1
     7    18    19    1
     8    14    15    1
     9    15     1    1
    10     1     2    1
    11     2     3   ar
    12     3     4   ar
    13     4     5    1
    14     4     6   ar
    15     6     7   ar
    16     7     9    1
    17     9    10    3
    18     7     8   ar
    19    15    11    1
    20     8     2   ar
@<TRIPOS>MOLECULE
*****
 19 20 0 0 0
SMALL
GASTEIGER

@<TRIPOS>ATOM
      1 O         141.0381  140.8882  165.3393 O.3     1  UNL1       -0.4676
      2 C         141.1827  141.0256  166.8260 C.ar    1  UNL1        0.1410
      3 C         141.7725  139.9043  167.6290 C.ar    1  UNL1        0.0484
      4 C         141.9170  140.0418  169.1156 C.ar    1  UNL1        0.0614
      5 CL        142.5068  138.9205  169.9187 Cl      1  UNL1       -0.0821
      6 C         141.4719  141.3006  169.7993 C.ar    1  UNL1        0.0219
      7 C         140.8822  142.4219  168.9963 C.ar    1  UNL1        0.0723
      8 C         140.7376  142.2844  167.5096 C.ar    1  UNL1        0.0472
      9 C         140.4371  143.6806  169.6799 C.1     1  UNL1        0.1005
     10 N         139.9920  144.9394  170.3635 N.1     1  UNL1       -0.1908
     11 C         139.4942  138.7865  164.7524 C.2     1  UNL1        0.1032
     12 N         139.6997  137.4884  164.0295 N.2     1  UNL1       -0.1533
     13 N         141.1240  137.4389  163.5616 N.2     1  UNL1       -0.1533
     14 C         141.7987  138.7064  163.9953 C.2     1  UNL1        0.1032
     15 C         140.7914  139.5393  164.7312 C.3     1  UNL1        0.2405
     16 C         137.8521  138.7899  166.7657 C.3     1  UNL1        0.0065
     17 C         138.2158  139.2504  165.3853 C.3     1  UNL1        0.0472
     18 C         143.2295  139.0761  163.7381 C.3     1  UNL1        0.0472
     19 C         144.1955  139.1760  164.8814 C.3     1  UNL1        0.0065
@<TRIPOS>BOND
     1    16    17    1
     2    17    11    1
     3    11    12    2
     4    12    13    1
     5    13    14    2
     6    14    18    1
     7    18    19    1
     8    14    15    1
     9    15     1    1
    10     1     2    1
    11     2     3   ar
    12     3     4   ar
    13     4     5    1
    14     4     6   ar
    15     6     7   ar
    16     7     9    1
    17     9    10    3
    18     7     8   ar
    19    15    11    1
    20     8     2   ar
@<TRIPOS>MOLECULE
*****
 19 20 0 0 0
SMALL
GASTEIGER

@<TRIPOS>ATOM
      1 O         140.9609  141.2299  165.0191 O.3     1  UNL1       -0.4676
      2 C         141.1238  141.2494  166.5102 C.ar    1  UNL1        0.1410
      3 C         141.7169  140.0659  167.2154 C.ar    1  UNL1        0.0484
      4 C         141.8797  140.0854  168.7064 C.ar    1  UNL1        0.0614
      5 CL        142.4728  138.9018  169.4117 Cl      1  UNL1       -0.0821
      6 C         141.4494  141.2885  169.4922 C.ar    1  UNL1        0.0219
      7 C         140.8563  142.4721  168.7869 C.ar    1  UNL1        0.0723
      8 C         140.6935  142.4525  167.2960 C.ar    1  UNL1        0.0472
      9 C         140.4261  143.6752  169.5727 C.1     1  UNL1        0.1005
     10 N         139.9958  144.8783  170.3585 N.1     1  UNL1       -0.1908
     11 C         138.7124  140.2179  163.9871 C.2     1  UNL1        0.1032
     12 N         137.4435  140.7977  163.4360 N.2     1  UNL1       -0.1533
     13 N         137.5418  142.2921  163.5204 N.2     1  UNL1       -0.1533
     14 C         138.8714  142.6359  164.1238 C.2     1  UNL1        0.1032
     15 C         139.5949  141.3540  164.4122 C.3     1  UNL1        0.2405
     16 C         138.8539  138.0412  165.3984 C.3     1  UNL1        0.0065
     17 C         139.0412  138.7583  164.0943 C.3     1  UNL1        0.0472
     18 C         139.3869  144.0188  164.3917 C.3     1  UNL1        0.0472
     19 C         138.6736  144.9097  165.3652 C.3     1  UNL1        0.0065
@<TRIPOS>BOND
     1    16    17    1
     2    17    11    1
     3    11    12    2
     4    12    13    1
     5    13    14    2
     6    14    18    1
     7    18    19    1
     8    14    15    1
     9    15     1    1
    10     1     2    1
    11     2     3   ar
    12     3     4   ar
    13     4     5    1
    14     4     6   ar
    15     6     7   ar
    16     7     9    1
    17     9    10    3
    18     7     8   ar
    19    15    11    1
    20     8     2   ar
@<TRIPOS>MOLECULE
*****
 19 20 0 0 0
SMALL
GASTEIGER

@<TRIPOS>ATOM
      1 O         140.5095  141.8969  164.1124 O.3     1  UNL1       -0.4676
      2 C         140.1999  141.3932  165.4910 C.ar    1  UNL1        0.1410
      3 C         140.8943  141.9875  166.6802 C.ar    1  UNL1        0.0484
      4 C         140.5847  141.4838  168.0587 C.ar    1  UNL1        0.0614
      5 CL        141.2792  142.0781  169.2481 Cl      1  UNL1       -0.0821
      6 C         139.5806  140.3856  168.2480 C.ar    1  UNL1        0.0219
      7 C         138.8861  139.7912  167.0587 C.ar    1  UNL1        0.0723
      8 C         139.1958  140.2950  165.6802 C.ar    1  UNL1        0.0472
      9 C         137.8820  138.6930  167.2479 C.1     1  UNL1        0.1005
     10 N         136.8779  137.5949  167.4372 N.1     1  UNL1       -0.1908
     11 C         138.7143  143.5783  163.0658 C.2     1  UNL1        0.1032
     12 N         137.6614  143.4783  162.0022 N.2     1  UNL1       -0.1533
     13 N         137.6897  142.0831  161.4518 N.2     1  UNL1       -0.1533
     14 C         138.7600  141.3210  162.1753 C.2     1  UNL1        0.1032
     15 C         139.3933  142.2450  163.1728 C.3     1  UNL1        0.2405
     16 C         138.6983  144.8316  165.3415 C.3     1  UNL1        0.0065
     17 C         139.0324  144.7976  163.8796 C.3     1  UNL1        0.0472
     18 C         139.1318  139.8866  161.9422 C.3     1  UNL1        0.0472
     19 C         138.1971  138.7915  162.3633 C.3     1  UNL1        0.0065
@<TRIPOS>BOND
     1    16    17    1
     2    17    11    1
     3    11    12    2
     4    12    13    1
     5    13    14    2
     6    14    18    1
     7    18    19    1
     8    14    15    1
     9    15     1    1
    10     1     2    1
    11     2     3   ar
    12     3     4   ar
    13     4     5    1
    14     4     6   ar
    15     6     7   ar
    16     7     9    1
    17     9    10    3
    18     7     8   ar
    19    15    11    1
    20     8     2   ar
@<TRIPOS>MOLECULE
*****
 19 20 0 0 0
SMALL
GASTEIGER

@<TRIPOS>ATOM
      1 O         142.4803  138.8836  166.4673 O.3     1  UNL1       -0.4676
      2 C         141.8352  140.1448  166.9604 C.ar    1  UNL1        0.1410
      3 C         141.3933  141.1930  165.9827 C.ar    1  UNL1        0.0484
      4 C         140.7482  142.4542  166.4758 C.ar    1  UNL1        0.0614
      5 CL        140.3062  143.5025  165.4981 Cl      1  UNL1       -0.0821
      6 C         140.5451  142.6672  167.9467 C.ar    1  UNL1        0.0219
      7 C         140.9870  141.6190  168.9244 C.ar    1  UNL1        0.0723
      8 C         141.6321  140.3579  168.4312 C.ar    1  UNL1        0.0472
      9 C         140.7839  141.8321  170.3952 C.1     1  UNL1        0.1005
     10 N         140.5808  142.0451  171.8661 N.1     1  UNL1       -0.1908
     11 C         141.2643  137.8644  164.3161 C.2     1  UNL1        0.1032
     12 N         141.6285  137.6996  162.8704 N.2     1  UNL1       -0.1533
     13 N         143.0053  138.2611  162.6723 N.2     1  UNL1       -0.1533
     14 C         143.4919  138.7729  163.9956 C.2     1  UNL1        0.1032
     15 C         142.4160  138.5278  165.0115 C.3     1  UNL1        0.2405
     16 C         138.9085  138.4565  165.2378 C.3     1  UNL1        0.0065
     17 C         139.9748  137.4403  164.9544 C.3     1  UNL1        0.0472
     18 C         144.8212  139.4169  164.2570 C.3     1  UNL1        0.0472
     19 C         144.9434  140.9119  164.2570 C.3     1  UNL1        0.0065
@<TRIPOS>BOND
     1    16    17    1
     2    17    11    1
     3    11    12    2
     4    12    13    1
     5    13    14    2
     6    14    18    1
     7    18    19    1
     8    14    15    1
     9    15     1    1
    10     1     2    1
    11     2     3   ar
    12     3     4   ar
    13     4     5    1
    14     4     6   ar
    15     6     7   ar
    16     7     9    1
    17     9    10    3
    18     7     8   ar
    19    15    11    1
    20     8     2   ar
