@<TRIPOS>MOLECULE
*****
 25 27 0 0 0
SMALL
GASTEIGER

@<TRIPOS>ATOM
      1 C         138.3715  140.4943  164.5372 C.ar    1  UNL1        0.2475
      2 C         138.0337  139.7115  165.7714 C.ar    1  UNL1        0.0686
      3 C         138.4641  138.2797  165.8927 C.ar    1  UNL1        0.0117
      4 C         139.2325  137.6307  164.7798 C.ar    1  UNL1        0.0686
      5 C         139.5703  138.4135  163.5457 C.ar    1  UNL1        0.2475
      6 N         139.1398  139.8453  163.4244 N.ar    1  UNL1       -0.1643
      7 C         139.4777  140.6281  162.1903 C.3     1  UNL1        0.4078
      8 C         137.9410  141.9260  164.4160 C.3     1  UNL1        0.3010
      9 O         138.6606  142.9934  165.1860 O.3     1  UNL1       -0.4642
     10 C         143.9736  145.0136  163.2648 C.3     1  UNL1        0.0310
     11 C         142.6453  144.5085  163.7451 C.ar    1  UNL1       -0.0217
     12 C         141.3908  145.2570  163.4049 C.ar    1  UNL1       -0.0011
     13 C         140.0625  144.7519  163.8852 C.ar    1  UNL1        0.0366
     14 C         139.9889  143.4984  164.7057 C.ar    1  UNL1        0.1393
     15 C         141.2435  142.7500  165.0458 C.ar    1  UNL1        0.0366
     16 C         142.5717  143.2550  164.5655 C.ar    1  UNL1       -0.0011
     17 C         140.3387  137.7645  162.4328 C.3     1  UNL1        0.3010
     18 O         141.7776  137.3913  162.6330 O.3     1  UNL1       -0.4642
     19 C         142.7965  138.4560  162.9136 C.ar    1  UNL1        0.1393
     20 C         143.2099  138.7448  164.3262 C.ar    1  UNL1        0.0366
     21 C         144.2287  139.8093  164.6068 C.ar    1  UNL1       -0.0011
     22 C         144.8341  140.5851  163.4746 C.ar    1  UNL1       -0.0217
     23 C         145.8529  141.6497  163.7552 C.3     1  UNL1        0.0310
     24 C         144.4207  140.2963  162.0620 C.ar    1  UNL1       -0.0011
     25 C         143.4018  139.2317  161.7814 C.ar    1  UNL1        0.0366
@<TRIPOS>UNITY_ATOM_ATTR
6 1
charge 1
@<TRIPOS>BOND
     1    10    11    1
     2    11    12   ar
     3    12    13   ar
     4    13    14   ar
     5    14     9    1
     6     9     8    1
     7     8     1    1
     8     1     2   ar
     9     2     3   ar
    10     3     4   ar
    11     4     5   ar
    12     5    17    1
    13    17    18    1
    14    18    19    1
    15    19    20   ar
    16    20    21   ar
    17    21    22   ar
    18    22    23    1
    19    22    24   ar
    20    24    25   ar
    21     5     6   ar
    22     6     7    1
    23    14    15   ar
    24    15    16   ar
    25    16    11   ar
    26     6     1   ar
    27    25    19   ar
@<TRIPOS>MOLECULE
*****
 25 27 0 0 0
SMALL
GASTEIGER

@<TRIPOS>ATOM
      1 C         139.5588  138.4040  163.5766 C.ar    1  UNL1        0.2475
      2 C         139.2196  137.6087  164.8024 C.ar    1  UNL1        0.0686
      3 C         138.4608  138.2499  165.9263 C.ar    1  UNL1        0.0117
      4 C         138.0412  139.6865  165.8243 C.ar    1  UNL1        0.0686
      5 C         138.3804  140.4817  164.5986 C.ar    1  UNL1        0.2475
      6 N         139.1393  139.8405  163.4748 N.ar    1  UNL1       -0.1643
      7 C         139.4785  140.6357  162.2490 C.3     1  UNL1        0.4078
      8 C         140.3177  137.7628  162.4528 C.3     1  UNL1        0.3010
      9 O         141.7568  137.3834  162.6399 O.3     1  UNL1       -0.4642
     10 C         145.8568  141.6215  163.7482 C.3     1  UNL1        0.0310
     11 C         144.8318  140.5620  163.4711 C.ar    1  UNL1       -0.0217
     12 C         144.4042  140.2827  162.0608 C.ar    1  UNL1       -0.0011
     13 C         143.3792  139.2231  161.7837 C.ar    1  UNL1        0.0366
     14 C         142.7818  138.4430  162.9170 C.ar    1  UNL1        0.1393
     15 C         143.2093  138.7223  164.3273 C.ar    1  UNL1        0.0366
     16 C         144.2343  139.7818  164.6044 C.ar    1  UNL1       -0.0011
     17 C         137.9609  141.9182  164.4967 C.3     1  UNL1        0.3010
     18 O         138.7037  142.9726  165.2625 O.3     1  UNL1       -0.4642
     19 C         140.0226  143.4776  164.7569 C.ar    1  UNL1        0.1393
     20 C         141.2802  142.7146  165.0503 C.ar    1  UNL1        0.0366
     21 C         142.5991  143.2195  164.5448 C.ar    1  UNL1       -0.0011
     22 C         142.6604  144.4875  163.7457 C.ar    1  UNL1       -0.0217
     23 C         143.9792  144.9924  163.2402 C.3     1  UNL1        0.0310
     24 C         141.4027  145.2506  163.4523 C.ar    1  UNL1       -0.0011
     25 C         140.0838  144.7456  163.9579 C.ar    1  UNL1        0.0366
@<TRIPOS>UNITY_ATOM_ATTR
6 1
charge 1
@<TRIPOS>BOND
     1    10    11    1
     2    11    12   ar
     3    12    13   ar
     4    13    14   ar
     5    14     9    1
     6     9     8    1
     7     8     1    1
     8     1     2   ar
     9     2     3   ar
    10     3     4   ar
    11     4     5   ar
    12     5    17    1
    13    17    18    1
    14    18    19    1
    15    19    20   ar
    16    20    21   ar
    17    21    22   ar
    18    22    23    1
    19    22    24   ar
    20    24    25   ar
    21     5     6   ar
    22     6     7    1
    23    14    15   ar
    24    15    16   ar
    25    16    11   ar
    26     6     1   ar
    27    25    19   ar
@<TRIPOS>MOLECULE
*****
 25 27 0 0 0
SMALL
GASTEIGER

@<TRIPOS>ATOM
      1 C         138.6478  140.6503  164.8281 C.ar    1  UNL1        0.2475
      2 C         138.2098  139.8921  166.0460 C.ar    1  UNL1        0.0686
      3 C         138.3704  138.4017  166.0996 C.ar    1  UNL1        0.0117
      4 C         138.9690  137.6695  164.9353 C.ar    1  UNL1        0.0686
      5 C         139.4070  138.4277  163.7174 C.ar    1  UNL1        0.2475
      6 N         139.2464  139.9181  163.6638 N.ar    1  UNL1       -0.1643
      7 C         139.6844  140.6763  162.4459 C.3     1  UNL1        0.4078
      8 C         138.4872  142.1407  164.7744 C.3     1  UNL1        0.3010
      9 O         139.6828  143.0305  164.9439 O.3     1  UNL1       -0.4642
     10 C         143.5239  142.0680  169.4517 C.3     1  UNL1        0.0310
     11 C         142.5636  142.3086  168.3247 C.ar    1  UNL1       -0.0217
     12 C         143.0295  142.1891  166.9040 C.ar    1  UNL1       -0.0011
     13 C         142.0693  142.4298  165.7770 C.ar    1  UNL1        0.0366
     14 C         140.6431  142.7899  166.0709 C.ar    1  UNL1        0.1393
     15 C         140.1772  142.9093  167.4916 C.ar    1  UNL1        0.0366
     16 C         141.1375  142.6687  168.6186 C.ar    1  UNL1       -0.0011
     17 C         140.0056  137.6955  162.5532 C.3     1  UNL1        0.3010
     18 O         141.4404  137.2604  162.5982 O.3     1  UNL1       -0.4642
     19 C         142.5167  138.2567  162.9128 C.ar    1  UNL1        0.1393
     20 C         143.1660  139.0339  161.8063 C.ar    1  UNL1        0.0366
     21 C         144.2422  140.0302  162.1208 C.ar    1  UNL1       -0.0011
     22 C         144.6693  140.2493  163.5420 C.ar    1  UNL1       -0.0217
     23 C         145.7456  141.2456  163.8566 C.3     1  UNL1        0.0310
     24 C         144.0200  139.4722  164.6486 C.ar    1  UNL1       -0.0011
     25 C         142.9437  138.4758  164.3339 C.ar    1  UNL1        0.0366
@<TRIPOS>UNITY_ATOM_ATTR
6 1
charge 1
@<TRIPOS>BOND
     1    10    11    1
     2    11    12   ar
     3    12    13   ar
     4    13    14   ar
     5    14     9    1
     6     9     8    1
     7     8     1    1
     8     1     2   ar
     9     2     3   ar
    10     3     4   ar
    11     4     5   ar
    12     5    17    1
    13    17    18    1
    14    18    19    1
    15    19    20   ar
    16    20    21   ar
    17    21    22   ar
    18    22    23    1
    19    22    24   ar
    20    24    25   ar
    21     5     6   ar
    22     6     7    1
    23    14    15   ar
    24    15    16   ar
    25    16    11   ar
    26     6     1   ar
    27    25    19   ar
@<TRIPOS>MOLECULE
*****
 25 27 0 0 0
SMALL
GASTEIGER

@<TRIPOS>ATOM
      1 C         139.4593  138.4848  163.6097 C.ar    1  UNL1        0.2475
      2 C         139.0323  137.7096  164.8208 C.ar    1  UNL1        0.0686
      3 C         138.4495  138.4259  166.0028 C.ar    1  UNL1        0.0117
      4 C         138.2937  139.9176  165.9737 C.ar    1  UNL1        0.0686
      5 C         138.7208  140.6928  164.7627 C.ar    1  UNL1        0.2475
      6 N         139.3036  139.9764  163.5807 N.ar    1  UNL1       -0.1643
      7 C         139.7306  140.7516  162.3696 C.3     1  UNL1        0.4078
      8 C         140.0422  137.7684  162.4277 C.3     1  UNL1        0.3010
      9 O         141.4825  137.3499  162.4398 O.3     1  UNL1       -0.4642
     10 C         145.7488  141.3209  163.8644 C.3     1  UNL1        0.0310
     11 C         144.6822  140.3281  163.5082 C.ar    1  UNL1       -0.0217
     12 C         144.0210  139.5193  164.5845 C.ar    1  UNL1       -0.0011
     13 C         142.9544  138.5265  164.2284 C.ar    1  UNL1        0.0366
     14 C         142.5491  138.3426  162.7960 C.ar    1  UNL1        0.1393
     15 C         143.2104  139.1515  161.7197 C.ar    1  UNL1        0.0366
     16 C         144.2769  140.1442  162.0758 C.ar    1  UNL1       -0.0011
     17 C         138.5650  142.1844  164.7336 C.3     1  UNL1        0.3010
     18 O         139.7628  143.0674  164.9224 O.3     1  UNL1       -0.4642
     19 C         140.7071  142.8171  166.0607 C.ar    1  UNL1        0.1393
     20 C         142.1417  142.4773  165.7842 C.ar    1  UNL1        0.0366
     21 C         143.0860  142.2270  166.9224 C.ar    1  UNL1       -0.0011
     22 C         142.5957  142.3165  168.3373 C.ar    1  UNL1       -0.0217
     23 C         143.5400  142.0662  169.4755 C.3     1  UNL1        0.0310
     24 C         141.1611  142.6562  168.6138 C.ar    1  UNL1       -0.0011
     25 C         140.2168  142.9065  167.4755 C.ar    1  UNL1        0.0366
@<TRIPOS>UNITY_ATOM_ATTR
6 1
charge 1
@<TRIPOS>BOND
     1    10    11    1
     2    11    12   ar
     3    12    13   ar
     4    13    14   ar
     5    14     9    1
     6     9     8    1
     7     8     1    1
     8     1     2   ar
     9     2     3   ar
    10     3     4   ar
    11     4     5   ar
    12     5    17    1
    13    17    18    1
    14    18    19    1
    15    19    20   ar
    16    20    21   ar
    17    21    22   ar
    18    22    23    1
    19    22    24   ar
    20    24    25   ar
    21     5     6   ar
    22     6     7    1
    23    14    15   ar
    24    15    16   ar
    25    16    11   ar
    26     6     1   ar
    27    25    19   ar
@<TRIPOS>MOLECULE
*****
 25 27 0 0 0
SMALL
GASTEIGER

@<TRIPOS>ATOM
      1 C         143.2471  143.6389  161.7582 C.ar    1  UNL1        0.2475
      2 C         144.1724  144.2558  162.7649 C.ar    1  UNL1        0.0686
      3 C         143.6271  145.1635  163.8273 C.ar    1  UNL1        0.0117
      4 C         142.1566  145.4544  163.8830 C.ar    1  UNL1        0.0686
      5 C         141.2314  144.8375  162.8764 C.ar    1  UNL1        0.2475
      6 N         141.7766  143.9298  161.8139 N.ar    1  UNL1       -0.1643
      7 C         140.8514  143.3130  160.8072 C.3     1  UNL1        0.4078
      8 C         143.7923  142.7312  160.6958 C.3     1  UNL1        0.3010
      9 O         143.6806  141.2434  160.8506 O.3     1  UNL1       -0.4642
     10 C         143.1803  138.8256  166.3191 C.3     1  UNL1        0.0310
     11 C         143.3054  139.4301  164.9520 C.ar    1  UNL1       -0.0217
     12 C         142.0825  139.6355  164.1080 C.ar    1  UNL1       -0.0011
     13 C         142.2076  140.2400  162.7409 C.ar    1  UNL1        0.0366
     14 C         143.5555  140.6390  162.2178 C.ar    1  UNL1        0.1393
     15 C         144.7784  140.4336  163.0617 C.ar    1  UNL1        0.0366
     16 C         144.6533  139.8291  164.4288 C.ar    1  UNL1       -0.0011
     17 C         139.7610  145.1284  162.9321 C.3     1  UNL1        0.3010
     18 O         138.9809  144.8147  164.1743 O.3     1  UNL1       -0.4642
     19 C         139.0601  143.4465  164.7841 C.ar    1  UNL1        0.1393
     20 C         140.0095  143.1833  165.9152 C.ar    1  UNL1        0.0366
     21 C         140.0887  141.8152  166.5251 C.ar    1  UNL1       -0.0011
     22 C         139.2184  140.7102  166.0038 C.ar    1  UNL1       -0.0217
     23 C         139.2976  139.3420  166.6136 C.3     1  UNL1        0.0310
     24 C         138.2690  140.9733  164.8727 C.ar    1  UNL1       -0.0011
     25 C         138.1899  142.3415  164.2629 C.ar    1  UNL1        0.0366
@<TRIPOS>UNITY_ATOM_ATTR
6 1
charge 1
@<TRIPOS>BOND
     1    10    11    1
     2    11    12   ar
     3    12    13   ar
     4    13    14   ar
     5    14     9    1
     6     9     8    1
     7     8     1    1
     8     1     2   ar
     9     2     3   ar
    10     3     4   ar
    11     4     5   ar
    12     5    17    1
    13    17    18    1
    14    18    19    1
    15    19    20   ar
    16    20    21   ar
    17    21    22   ar
    18    22    23    1
    19    22    24   ar
    20    24    25   ar
    21     5     6   ar
    22     6     7    1
    23    14    15   ar
    24    15    16   ar
    25    16    11   ar
    26     6     1   ar
    27    25    19   ar
@<TRIPOS>MOLECULE
*****
 25 27 0 0 0
SMALL
GASTEIGER

@<TRIPOS>ATOM
      1 C         141.2353  144.8450  162.6969 C.ar    1  UNL1        0.2475
      2 C         142.1207  145.4017  163.7723 C.ar    1  UNL1        0.0686
      3 C         143.5757  145.0391  163.8081 C.ar    1  UNL1        0.0117
      4 C         144.1455  144.1198  162.7686 C.ar    1  UNL1        0.0686
      5 C         143.2601  143.5632  161.6934 C.ar    1  UNL1        0.2475
      6 N         141.8050  143.9257  161.6575 N.ar    1  UNL1       -0.1643
      7 C         140.9197  143.3691  160.5823 C.3     1  UNL1        0.4078
      8 C         139.7802  145.2075  162.6611 C.3     1  UNL1        0.3010
      9 O         138.8824  144.8196  163.7983 O.3     1  UNL1       -0.4642
     10 C         138.5595  139.0887  165.5455 C.3     1  UNL1        0.0310
     11 C         138.6402  140.5214  165.1087 C.ar    1  UNL1       -0.0217
     12 C         137.8581  140.9872  163.9166 C.ar    1  UNL1       -0.0011
     13 C         137.9388  142.4200  163.4798 C.ar    1  UNL1        0.0366
     14 C         138.8017  143.3869  164.2351 C.ar    1  UNL1        0.1393
     15 C         139.5838  142.9210  165.4273 C.ar    1  UNL1        0.0366
     16 C         139.5031  141.4883  165.8641 C.ar    1  UNL1       -0.0011
     17 C         143.8298  142.6440  160.6540 C.3     1  UNL1        0.3010
     18 O         143.6831  141.1588  160.8046 O.3     1  UNL1       -0.4642
     19 C         143.5544  140.5526  162.1707 C.ar    1  UNL1        0.1393
     20 C         142.2054  140.1500  162.6885 C.ar    1  UNL1        0.0366
     21 C         142.0766  139.5438  164.0545 C.ar    1  UNL1       -0.0011
     22 C         143.2969  139.3402  164.9027 C.ar    1  UNL1       -0.0217
     23 C         143.1682  138.7340  166.2687 C.3     1  UNL1        0.0310
     24 C         144.6459  139.7428  164.3849 C.ar    1  UNL1       -0.0011
     25 C         144.7746  140.3490  163.0189 C.ar    1  UNL1        0.0366
@<TRIPOS>UNITY_ATOM_ATTR
6 1
charge 1
@<TRIPOS>BOND
     1    10    11    1
     2    11    12   ar
     3    12    13   ar
     4    13    14   ar
     5    14     9    1
     6     9     8    1
     7     8     1    1
     8     1     2   ar
     9     2     3   ar
    10     3     4   ar
    11     4     5   ar
    12     5    17    1
    13    17    18    1
    14    18    19    1
    15    19    20   ar
    16    20    21   ar
    17    21    22   ar
    18    22    23    1
    19    22    24   ar
    20    24    25   ar
    21     5     6   ar
    22     6     7    1
    23    14    15   ar
    24    15    16   ar
    25    16    11   ar
    26     6     1   ar
    27    25    19   ar
@<TRIPOS>MOLECULE
*****
 25 27 0 0 0
SMALL
GASTEIGER

@<TRIPOS>ATOM
      1 C         142.7993  139.5811  162.3313 C.ar    1  UNL1        0.2475
      2 C         143.5055  138.7290  163.3438 C.ar    1  UNL1        0.0686
      3 C         144.5533  139.3322  164.2317 C.ar    1  UNL1        0.0117
      4 C         144.8949  140.7875  164.1069 C.ar    1  UNL1        0.0686
      5 C         144.1887  141.6395  163.0944 C.ar    1  UNL1        0.2475
      6 N         143.1409  141.0363  162.2066 N.ar    1  UNL1       -0.1643
      7 C         142.4347  141.8884  161.1940 C.3     1  UNL1        0.4078
      8 C         141.7514  138.9779  161.4434 C.3     1  UNL1        0.3010
      9 O         140.3062  139.3244  161.6466 O.3     1  UNL1       -0.4642
     10 C         137.7706  138.5781  167.0330 C.3     1  UNL1        0.0310
     11 C         138.4045  138.7647  165.6864 C.ar    1  UNL1       -0.0217
     12 C         139.0574  137.6033  164.9974 C.ar    1  UNL1       -0.0011
     13 C         139.6913  137.7898  163.6508 C.ar    1  UNL1        0.0366
     14 C         139.6723  139.1378  162.9932 C.ar    1  UNL1        0.1393
     15 C         139.0194  140.2992  163.6822 C.ar    1  UNL1        0.0366
     16 C         138.3855  140.1127  165.0288 C.ar    1  UNL1       -0.0011
     17 C         144.5303  143.0947  162.9697 C.3     1  UNL1        0.3010
     18 O         143.9255  144.0907  163.9142 O.3     1  UNL1       -0.4642
     19 C         142.4405  144.1189  164.1246 C.ar    1  UNL1        0.1393
     20 C         141.8196  143.2792  165.2013 C.ar    1  UNL1        0.0366
     21 C         140.3347  143.3074  165.4118 C.ar    1  UNL1       -0.0011
     22 C         139.4707  144.1753  164.5455 C.ar    1  UNL1       -0.0217
     23 C         137.9859  144.2034  164.7559 C.3     1  UNL1        0.0310
     24 C         140.0917  145.0150  163.4687 C.ar    1  UNL1       -0.0011
     25 C         141.5766  144.9868  163.2583 C.ar    1  UNL1        0.0366
@<TRIPOS>UNITY_ATOM_ATTR
6 1
charge 1
@<TRIPOS>BOND
     1    10    11    1
     2    11    12   ar
     3    12    13   ar
     4    13    14   ar
     5    14     9    1
     6     9     8    1
     7     8     1    1
     8     1     2   ar
     9     2     3   ar
    10     3     4   ar
    11     4     5   ar
    12     5    17    1
    13    17    18    1
    14    18    19    1
    15    19    20   ar
    16    20    21   ar
    17    21    22   ar
    18    22    23    1
    19    22    24   ar
    20    24    25   ar
    21     5     6   ar
    22     6     7    1
    23    14    15   ar
    24    15    16   ar
    25    16    11   ar
    26     6     1   ar
    27    25    19   ar
@<TRIPOS>MOLECULE
*****
 25 27 0 0 0
SMALL
GASTEIGER

@<TRIPOS>ATOM
      1 C         143.9978  141.5000  162.9996 C.ar    1  UNL1        0.2475
      2 C         144.6441  140.6097  164.0193 C.ar    1  UNL1        0.0686
      3 C         144.2220  139.1751  164.1374 C.ar    1  UNL1        0.0117
      4 C         143.1537  138.6310  163.2359 C.ar    1  UNL1        0.0686
      5 C         142.5075  139.5213  162.2163 C.ar    1  UNL1        0.2475
      6 N         142.9296  140.9559  162.0981 N.ar    1  UNL1       -0.1643
      7 C         142.2834  141.8462  161.0785 C.3     1  UNL1        0.4078
      8 C         144.4199  142.9346  162.8814 C.3     1  UNL1        0.3010
      9 O         143.8713  143.9584  163.8305 O.3     1  UNL1       -0.4642
     10 C         137.9648  144.2486  164.8447 C.3     1  UNL1        0.0310
     11 C         139.4414  144.1760  164.5912 C.ar    1  UNL1       -0.0217
     12 C         140.2998  143.2626  165.4150 C.ar    1  UNL1       -0.0011
     13 C         141.7765  143.1901  165.1614 C.ar    1  UNL1        0.0366
     14 C         142.3947  144.0309  164.0841 C.ar    1  UNL1        0.1393
     15 C         141.5362  144.9443  163.2603 C.ar    1  UNL1        0.0366
     16 C         140.0596  145.0169  163.5138 C.ar    1  UNL1       -0.0011
     17 C         141.4393  138.9772  161.3148 C.3     1  UNL1        0.3010
     18 O         139.9980  139.2948  161.5830 O.3     1  UNL1       -0.4642
     19 C         139.4387  139.1315  162.9652 C.ar    1  UNL1        0.1393
     20 C         139.5190  137.8017  163.6546 C.ar    1  UNL1        0.0366
     21 C         138.9597  137.6384  165.0367 C.ar    1  UNL1       -0.0011
     22 C         138.3200  138.8050  165.7297 C.ar    1  UNL1       -0.0217
     23 C         137.7607  138.6417  167.1118 C.3     1  UNL1        0.0310
     24 C         138.2397  140.1348  165.0403 C.ar    1  UNL1       -0.0011
     25 C         138.7990  140.2980  163.6581 C.ar    1  UNL1        0.0366
@<TRIPOS>UNITY_ATOM_ATTR
6 1
charge 1
@<TRIPOS>BOND
     1    10    11    1
     2    11    12   ar
     3    12    13   ar
     4    13    14   ar
     5    14     9    1
     6     9     8    1
     7     8     1    1
     8     1     2   ar
     9     2     3   ar
    10     3     4   ar
    11     4     5   ar
    12     5    17    1
    13    17    18    1
    14    18    19    1
    15    19    20   ar
    16    20    21   ar
    17    21    22   ar
    18    22    23    1
    19    22    24   ar
    20    24    25   ar
    21     5     6   ar
    22     6     7    1
    23    14    15   ar
    24    15    16   ar
    25    16    11   ar
    26     6     1   ar
    27    25    19   ar
@<TRIPOS>MOLECULE
*****
 25 27 0 0 0
SMALL
GASTEIGER

@<TRIPOS>ATOM
      1 C         138.2630  142.7649  163.2950 C.ar    1  UNL1        0.2475
      2 C         138.1274  143.6160  164.5228 C.ar    1  UNL1        0.0686
      3 C         139.0671  144.7634  164.7475 C.ar    1  UNL1        0.0117
      4 C         140.1423  145.0597  163.7444 C.ar    1  UNL1        0.0686
      5 C         140.2779  144.2087  162.5167 C.ar    1  UNL1        0.2475
      6 N         139.3382  143.0613  162.2920 N.ar    1  UNL1       -0.1643
      7 C         139.4738  142.2103  161.0643 C.3     1  UNL1        0.4078
      8 C         137.3234  141.6175  163.0703 C.3     1  UNL1        0.3010
      9 O         137.7585  140.2181  163.3900 O.3     1  UNL1       -0.4642
     10 C         142.4632  139.2891  166.9959 C.3     1  UNL1        0.0310
     11 C         141.2870  139.5213  166.0944 C.ar    1  UNL1       -0.0217
     12 C         141.4437  139.3905  164.6084 C.ar    1  UNL1       -0.0011
     13 C         140.2675  139.6228  163.7069 C.ar    1  UNL1        0.0366
     14 C         138.9347  139.9858  164.2914 C.ar    1  UNL1        0.1393
     15 C         138.7780  140.1166  165.7775 C.ar    1  UNL1        0.0366
     16 C         139.9542  139.8844  166.6789 C.ar    1  UNL1       -0.0011
     17 C         141.3531  144.5051  161.5137 C.3     1  UNL1        0.3010
     18 O         142.7930  144.4985  161.9337 O.3     1  UNL1       -0.4642
     19 C         143.3908  143.2653  162.5436 C.ar    1  UNL1        0.1393
     20 C         143.6138  143.1938  164.0252 C.ar    1  UNL1        0.0366
     21 C         144.2114  141.9606  164.6351 C.ar    1  UNL1       -0.0011
     22 C         144.5862  140.7988  163.7633 C.ar    1  UNL1       -0.0217
     23 C         145.1839  139.5656  164.3732 C.3     1  UNL1        0.0310
     24 C         144.3632  140.8703  162.2817 C.ar    1  UNL1       -0.0011
     25 C         143.7655  142.1035  161.6719 C.ar    1  UNL1        0.0366
@<TRIPOS>UNITY_ATOM_ATTR
6 1
charge 1
@<TRIPOS>BOND
     1    10    11    1
     2    11    12   ar
     3    12    13   ar
     4    13    14   ar
     5    14     9    1
     6     9     8    1
     7     8     1    1
     8     1     2   ar
     9     2     3   ar
    10     3     4   ar
    11     4     5   ar
    12     5    17    1
    13    17    18    1
    14    18    19    1
    15    19    20   ar
    16    20    21   ar
    17    21    22   ar
    18    22    23    1
    19    22    24   ar
    20    24    25   ar
    21     5     6   ar
    22     6     7    1
    23    14    15   ar
    24    15    16   ar
    25    16    11   ar
    26     6     1   ar
    27    25    19   ar
