@<TRIPOS>MOLECULE
*****
 31 35 0 0 0
SMALL
GASTEIGER

@<TRIPOS>ATOM
      1 C         140.2875  141.2929  166.5358 C.2     1  UNL1        0.2697
      2 O         140.7855  142.4585  165.7336 O.2     1  UNL1       -0.2681
      3 N         140.0575  141.4411  168.0106 N.am    1  UNL1       -0.2779
      4 C         139.5645  140.3701  168.9380 C.3     1  UNL1        0.0773
      5 C         139.4823  140.9532  170.3176 C.3     1  UNL1        0.0216
      6 C         139.9246  142.3847  170.2428 C.3     1  UNL1        0.0216
      7 C         140.2800  142.6861  168.8170 C.3     1  UNL1        0.0773
      8 C         140.5605  142.7012  167.3337 C.3     1  UNL1        0.0393
      9 C         140.2925  141.3875  166.6610 C.3     1  UNL1        0.0724
     10 C         139.7945  140.2219  167.4631 C.3     1  UNL1        0.0393
     11 C         140.9873  136.5595  164.3029 C.3     1  UNL1        0.0750
     12 C         140.3412  137.8036  164.8368 C.ar    1  UNL1        0.1509
     13 O         138.8733  138.1119  164.8192 O.2     1  UNL1       -0.3579
     14 N         138.6746  139.4566  165.4535 N.ar    1  UNL1       -0.0730
     15 C         140.0196  139.9793  165.8631 C.ar    1  UNL1        0.1718
     16 C         141.0496  138.9577  165.4819 C.ar    1  UNL1        0.0364
     17 C         142.5284  139.0704  165.7064 C.3     1  UNL1        0.0358
     18 N         140.5226  141.2394  165.1862 N.pl3   1  UNL1       -0.3326
     19 H         140.7388  140.3566  164.8079 H       1  UNL1        0.1468
     20 C         140.4231  142.4364  164.2877 C.ar    1  UNL1        0.0702
     21 C         139.0803  143.0192  163.9606 C.ar    1  UNL1        0.0767
     22 C         138.9809  144.2162  163.0621 C.ar    1  UNL1        0.2634
     23 O         137.6379  144.7990  162.7350 O.2     1  UNL1       -0.2669
     24 N         140.2243  144.8304  162.4906 N.ar    1  UNL1       -0.2774
     25 C         140.1249  146.0274  161.5921 C.3     1  UNL1        0.1351
     26 C         141.5672  144.2476  162.8177 C.ar    1  UNL1        0.1652
     27 N         142.8107  144.8618  162.2463 N.ar    1  UNL1       -0.2234
     28 C         144.1535  144.2790  162.5733 C.ar    1  UNL1        0.1212
     29 C         144.2530  143.0820  163.4718 C.ar    1  UNL1        0.1196
     30 N         143.0095  142.4678  164.0433 N.ar    1  UNL1       -0.2379
     31 C         141.6667  143.0506  163.7162 C.ar    1  UNL1        0.1286
@<TRIPOS>BOND
     1    11    12    1
     2    12    13   ar
     3    13    14   ar
     4    14    15   ar
     5    15     1    1
     6     1     2    2
     7     1     3   am
     8     3     4    1
     9     4     5    1
    10     5     6    1
    11     7     6    1
    12     7     8    1
    13     8     9    1
    14     9    18    1
    15    18    20    1
    16    20    21   ar
    17    21    22   ar
    18    22    23    2
    19    22    24   ar
    20    24    25    1
    21    24    26   ar
    22    26    27   ar
    23    27    28   ar
    24    28    29   ar
    25    29    30   ar
    26    30    31   ar
    27     9    10    1
    28    15    16   ar
    29    16    17    1
    30    16    12   ar
    31     7     3    1
    32    31    20   ar
    33    10     4    1
    34    31    26   ar
    35    18    19    1
@<TRIPOS>MOLECULE
*****
 31 35 0 0 0
SMALL
GASTEIGER

@<TRIPOS>ATOM
      1 C         142.3900  140.9609  166.3435 C.2     1  UNL1        0.2697
      2 O         142.6547  142.1194  165.4282 O.2     1  UNL1       -0.2681
      3 N         142.7348  141.0617  167.7999 N.am    1  UNL1       -0.2779
      4 C         142.5292  139.9916  168.8307 C.3     1  UNL1        0.0773
      5 C         143.0131  140.5187  170.1490 C.3     1  UNL1        0.0216
      6 C         143.5177  141.9147  169.9329 C.3     1  UNL1        0.0216
      7 C         143.3457  142.2503  168.4811 C.3     1  UNL1        0.0773
      8 C         143.0585  142.3087  167.0001 C.3     1  UNL1        0.0393
      9 C         142.4491  141.0493  166.4590 C.3     1  UNL1        0.0724
     10 C         142.1844  139.8908  167.3743 C.3     1  UNL1        0.0393
     11 C         138.8777  137.2443  165.0279 C.3     1  UNL1        0.0750
     12 C         140.1662  137.9933  165.1977 C.ar    1  UNL1        0.1509
     13 O         141.5195  137.5341  164.7419 O.2     1  UNL1       -0.3579
     14 N         142.5173  138.5900  165.1157 N.ar    1  UNL1       -0.0730
     15 C         141.7806  139.7016  165.8024 C.ar    1  UNL1        0.1718
     16 C         140.3276  139.3328  165.8531 C.ar    1  UNL1        0.0364
     17 C         139.2288  140.1586  166.4538 C.3     1  UNL1        0.0358
     18 N         142.1043  140.9486  165.0027 N.pl3   1  UNL1       -0.3326
     19 H         142.1791  140.0840  164.5378 H       1  UNL1        0.1468
     20 C         141.6455  142.1651  164.2547 C.ar    1  UNL1        0.0702
     21 C         140.5760  143.0428  164.8341 C.ar    1  UNL1        0.0767
     22 C         140.1172  144.2593  164.0861 C.ar    1  UNL1        0.2634
     23 O         139.0477  145.1371  164.6656 O.2     1  UNL1       -0.2669
     24 N         140.7278  144.5981  162.7586 N.ar    1  UNL1       -0.2774
     25 C         140.2690  145.8147  162.0106 C.3     1  UNL1        0.1351
     26 C         141.7974  143.7204  162.1791 C.ar    1  UNL1        0.1652
     27 N         142.4080  144.0592  160.8516 N.ar    1  UNL1       -0.2234
     28 C         143.4775  143.1815  160.2721 C.ar    1  UNL1        0.1212
     29 C         143.9363  141.9650  161.0202 C.ar    1  UNL1        0.1196
     30 N         143.3257  141.6262  162.3477 N.ar    1  UNL1       -0.2379
     31 C         142.2562  142.5039  162.9271 C.ar    1  UNL1        0.1286
@<TRIPOS>BOND
     1    11    12    1
     2    12    13   ar
     3    13    14   ar
     4    14    15   ar
     5    15     1    1
     6     1     2    2
     7     1     3   am
     8     3     4    1
     9     4     5    1
    10     5     6    1
    11     7     6    1
    12     7     8    1
    13     8     9    1
    14     9    18    1
    15    18    20    1
    16    20    21   ar
    17    21    22   ar
    18    22    23    2
    19    22    24   ar
    20    24    25    1
    21    24    26   ar
    22    26    27   ar
    23    27    28   ar
    24    28    29   ar
    25    29    30   ar
    26    30    31   ar
    27     9    10    1
    28    15    16   ar
    29    16    17    1
    30    16    12   ar
    31     7     3    1
    32    31    20   ar
    33    10     4    1
    34    31    26   ar
    35    18    19    1
@<TRIPOS>MOLECULE
*****
 31 35 0 0 0
SMALL
GASTEIGER

@<TRIPOS>ATOM
      1 C         140.2058  141.4410  167.3087 C.2     1  UNL1        0.2697
      2 O         140.4122  142.7946  166.6962 O.2     1  UNL1       -0.2681
      3 N         140.3249  141.2635  168.7934 N.am    1  UNL1       -0.2779
      4 C         140.1465  139.9776  169.5448 C.3     1  UNL1        0.0773
      5 C         140.3546  140.2601  171.0032 C.3     1  UNL1        0.0216
      6 C         140.6617  141.7207  171.1531 C.3     1  UNL1        0.0216
      7 C         140.6433  142.3408  169.7874 C.3     1  UNL1        0.0773
      8 C         140.5592  142.6848  168.3198 C.3     1  UNL1        0.0393
      9 C         140.2337  141.5087  167.4476 C.3     1  UNL1        0.0724
     10 C         140.0274  140.1551  168.0601 C.3     1  UNL1        0.0393
     11 C         140.6769  137.0307  164.4437 C.3     1  UNL1        0.0750
     12 C         140.0969  138.2377  165.1196 C.ar    1  UNL1        0.1509
     13 O         138.6620  138.6722  165.0690 O.2     1  UNL1       -0.3579
     14 N         138.5282  139.9251  165.8829 N.ar    1  UNL1       -0.0730
     15 C         139.8803  140.2649  166.4365 C.ar    1  UNL1        0.1718
     16 C         140.8498  139.2220  165.9648 C.ar    1  UNL1        0.0364
     17 C         142.3149  139.1722  166.2824 C.3     1  UNL1        0.0358
     18 N         140.1147  141.6861  165.9629 N.pl3   1  UNL1       -0.3326
     19 H         139.4102  141.2113  165.4653 H       1  UNL1        0.1468
     20 C         141.0688  142.5871  165.2363 C.ar    1  UNL1        0.0702
     21 C         142.5410  142.4965  165.5090 C.ar    1  UNL1        0.0767
     22 C         143.4952  143.3974  164.7824 C.ar    1  UNL1        0.2634
     23 O         144.9674  143.3068  165.0551 O.2     1  UNL1       -0.2669
     24 N         142.9771  144.3889  163.7831 N.ar    1  UNL1       -0.2774
     25 C         143.9313  145.2898  163.0565 C.3     1  UNL1        0.1351
     26 C         141.5048  144.4795  163.5104 C.ar    1  UNL1        0.1652
     27 N         140.9868  145.4710  162.5112 N.ar    1  UNL1       -0.2234
     28 C         139.5146  145.5616  162.2385 C.ar    1  UNL1        0.1212
     29 C         138.5605  144.6606  162.9651 C.ar    1  UNL1        0.1196
     30 N         139.0785  143.6692  163.9644 N.ar    1  UNL1       -0.2379
     31 C         140.5507  143.5786  164.2370 C.ar    1  UNL1        0.1286
@<TRIPOS>BOND
     1    11    12    1
     2    12    13   ar
     3    13    14   ar
     4    14    15   ar
     5    15     1    1
     6     1     2    2
     7     1     3   am
     8     3     4    1
     9     4     5    1
    10     5     6    1
    11     7     6    1
    12     7     8    1
    13     8     9    1
    14     9    18    1
    15    18    20    1
    16    20    21   ar
    17    21    22   ar
    18    22    23    2
    19    22    24   ar
    20    24    25    1
    21    24    26   ar
    22    26    27   ar
    23    27    28   ar
    24    28    29   ar
    25    29    30   ar
    26    30    31   ar
    27     9    10    1
    28    15    16   ar
    29    16    17    1
    30    16    12   ar
    31     7     3    1
    32    31    20   ar
    33    10     4    1
    34    31    26   ar
    35    18    19    1
@<TRIPOS>MOLECULE
*****
 31 35 0 0 0
SMALL
GASTEIGER

@<TRIPOS>ATOM
      1 C         142.1062  142.3069  164.4740 C.2     1  UNL1        0.2697
      2 O         141.7589  141.9420  165.8869 O.2     1  UNL1       -0.2681
      3 N         143.4493  141.9427  163.9139 N.am    1  UNL1       -0.2779
      4 C         143.9358  142.2396  162.5264 C.3     1  UNL1        0.0773
      5 C         145.3288  141.6980  162.3978 C.3     1  UNL1        0.0216
      6 C         145.7030  141.0664  163.7059 C.3     1  UNL1        0.0216
      7 C         144.5415  141.2176  164.6428 C.3     1  UNL1        0.0773
      8 C         143.2412  141.5098  165.3521 C.3     1  UNL1        0.0393
      9 C         142.2455  142.2389  164.4994 C.3     1  UNL1        0.0724
     10 C         142.5928  142.6038  163.0865 C.3     1  UNL1        0.0393
     11 C         139.5532  146.1514  161.9085 C.3     1  UNL1        0.0750
     12 C         139.9371  144.8031  162.4421 C.ar    1  UNL1        0.1509
     13 O         139.2199  143.5127  162.1761 O.2     1  UNL1       -0.3579
     14 N         139.9452  142.4206  162.9049 N.ar    1  UNL1       -0.0730
     15 C         141.1106  143.0359  163.6213 C.ar    1  UNL1        0.1718
     16 C         141.1056  144.5084  163.3352 C.ar    1  UNL1        0.0364
     17 C         142.0953  145.5103  163.8516 C.3     1  UNL1        0.0358
     18 N         140.9025  142.6031  165.0596 N.pl3   1  UNL1       -0.3326
     19 H         140.3137  143.2186  164.5659 H       1  UNL1        0.1468
     20 C         140.4567  142.0295  166.3719 C.ar    1  UNL1        0.0702
     21 C         140.8238  142.7160  167.6540 C.ar    1  UNL1        0.0767
     22 C         140.3780  142.1424  168.9663 C.ar    1  UNL1        0.2634
     23 O         140.7452  142.8290  170.2484 O.2     1  UNL1       -0.2669
     24 N         139.5649  140.8823  168.9965 N.ar    1  UNL1       -0.2774
     25 C         139.1190  140.3087  170.3088 C.3     1  UNL1        0.1351
     26 C         139.1977  140.1957  167.7144 C.ar    1  UNL1        0.1652
     27 N         138.3847  138.9355  167.7446 N.ar    1  UNL1       -0.2234
     28 C         138.0175  138.2490  166.4625 C.ar    1  UNL1        0.1212
     29 C         138.4634  138.8226  165.1502 C.ar    1  UNL1        0.1196
     30 N         139.2764  140.0827  165.1200 N.ar    1  UNL1       -0.2379
     31 C         139.6436  140.7693  166.4020 C.ar    1  UNL1        0.1286
@<TRIPOS>BOND
     1    11    12    1
     2    12    13   ar
     3    13    14   ar
     4    14    15   ar
     5    15     1    1
     6     1     2    2
     7     1     3   am
     8     3     4    1
     9     4     5    1
    10     5     6    1
    11     7     6    1
    12     7     8    1
    13     8     9    1
    14     9    18    1
    15    18    20    1
    16    20    21   ar
    17    21    22   ar
    18    22    23    2
    19    22    24   ar
    20    24    25    1
    21    24    26   ar
    22    26    27   ar
    23    27    28   ar
    24    28    29   ar
    25    29    30   ar
    26    30    31   ar
    27     9    10    1
    28    15    16   ar
    29    16    17    1
    30    16    12   ar
    31     7     3    1
    32    31    20   ar
    33    10     4    1
    34    31    26   ar
    35    18    19    1
@<TRIPOS>MOLECULE
*****
 31 35 0 0 0
SMALL
GASTEIGER

@<TRIPOS>ATOM
      1 C         140.9388  139.9952  167.0398 C.2     1  UNL1        0.2697
      2 O         139.5600  140.2359  166.5005 O.2     1  UNL1       -0.2681
      3 N         141.1886  140.0625  168.5174 N.am    1  UNL1       -0.2779
      4 C         142.5068  139.8457  169.1996 C.3     1  UNL1        0.0773
      5 C         142.2969  140.0076  170.6760 C.3     1  UNL1        0.0216
      6 C         140.8489  140.3244  170.9063 C.3     1  UNL1        0.0216
      7 C         140.1639  140.3583  169.5722 C.3     1  UNL1        0.0773
      8 C         139.7491  140.3272  168.1210 C.3     1  UNL1        0.0393
      9 C         140.8782  140.0191  167.1827 C.3     1  UNL1        0.0724
     10 C         142.2571  139.7784  167.7220 C.3     1  UNL1        0.0393
     11 C         145.2656  140.4934  164.0547 C.3     1  UNL1        0.0750
     12 C         144.0567  139.9162  164.7295 C.ar    1  UNL1        0.1509
     13 O         143.5541  138.5101  164.5863 O.2     1  UNL1       -0.3579
     14 N         142.3250  138.3686  165.4343 N.ar    1  UNL1       -0.0730
     15 C         142.0679  139.6872  166.1017 C.ar    1  UNL1        0.1718
     16 C         143.1382  140.6436  165.6661 C.ar    1  UNL1        0.0364
     17 C         143.2673  142.0760  166.0922 C.3     1  UNL1        0.0358
     18 N         140.6285  139.9519  165.7052 N.pl3   1  UNL1       -0.3326
     19 H         140.9715  139.1916  165.1821 H       1  UNL1        0.1468
     20 C         139.8561  141.0429  165.0246 C.ar    1  UNL1        0.0702
     21 C         139.8401  142.4254  165.6062 C.ar    1  UNL1        0.0767
     22 C         139.0677  143.5165  164.9257 C.ar    1  UNL1        0.2634
     23 O         139.0517  144.8991  165.5074 O.2     1  UNL1       -0.2669
     24 N         138.3115  143.2250  163.6635 N.ar    1  UNL1       -0.2774
     25 C         137.5392  144.3160  162.9830 C.3     1  UNL1        0.1351
     26 C         138.3275  141.8424  163.0819 C.ar    1  UNL1        0.1652
     27 N         137.5713  141.5509  161.8197 N.ar    1  UNL1       -0.2234
     28 C         137.5874  140.1684  161.2381 C.ar    1  UNL1        0.1212
     29 C         138.3597  139.0773  161.9187 C.ar    1  UNL1        0.1196
     30 N         139.1160  139.3688  163.1808 N.ar    1  UNL1       -0.2379
     31 C         139.0999  140.7513  163.7624 C.ar    1  UNL1        0.1286
@<TRIPOS>BOND
     1    11    12    1
     2    12    13   ar
     3    13    14   ar
     4    14    15   ar
     5    15     1    1
     6     1     2    2
     7     1     3   am
     8     3     4    1
     9     4     5    1
    10     5     6    1
    11     7     6    1
    12     7     8    1
    13     8     9    1
    14     9    18    1
    15    18    20    1
    16    20    21   ar
    17    21    22   ar
    18    22    23    2
    19    22    24   ar
    20    24    25    1
    21    24    26   ar
    22    26    27   ar
    23    27    28   ar
    24    28    29   ar
    25    29    30   ar
    26    30    31   ar
    27     9    10    1
    28    15    16   ar
    29    16    17    1
    30    16    12   ar
    31     7     3    1
    32    31    20   ar
    33    10     4    1
    34    31    26   ar
    35    18    19    1
@<TRIPOS>MOLECULE
*****
 31 35 0 0 0
SMALL
GASTEIGER

@<TRIPOS>ATOM
      1 C         140.0618  141.5682  166.3456 C.2     1  UNL1        0.2697
      2 O         140.1692  142.1860  164.9830 O.2     1  UNL1       -0.2681
      3 N         139.1764  140.3766  166.5611 N.am    1  UNL1       -0.2779
      4 C         138.9692  139.6557  167.8601 C.3     1  UNL1        0.0773
      5 C         138.0076  138.5303  167.6174 C.3     1  UNL1        0.0216
      6 C         137.6205  138.5558  166.1683 C.3     1  UNL1        0.0216
      7 C         138.3429  139.6969  165.5156 C.3     1  UNL1        0.0773
      8 C         139.1841  140.8913  165.1348 C.3     1  UNL1        0.0393
      9 C         139.9620  141.4651  166.2819 C.3     1  UNL1        0.0724
     10 C         139.8545  140.8472  167.6446 C.3     1  UNL1        0.0393
     11 C         143.9044  142.4810  169.8501 C.3     1  UNL1        0.0750
     12 C         142.6059  142.5615  169.1035 C.ar    1  UNL1        0.1509
     13 O         141.4673  143.4880  169.4122 O.2     1  UNL1       -0.3579
     14 N         140.3757  143.2287  168.4167 N.ar    1  UNL1       -0.0730
     15 C         140.8396  142.1419  167.4927 C.ar    1  UNL1        0.1718
     16 C         142.2179  141.7296  167.9172 C.ar    1  UNL1        0.0364
     17 C         143.0604  140.6712  167.2691 C.3     1  UNL1        0.0358
     18 N         140.8473  142.6566  166.0664 N.pl3   1  UNL1       -0.3326
     19 H         141.4240  142.9797  166.7959 H       1  UNL1        0.1468
     20 C         140.8539  143.3557  164.7393 C.ar    1  UNL1        0.0702
     21 C         139.6092  144.0266  164.2388 C.ar    1  UNL1        0.0767
     22 C         139.6159  144.7258  162.9117 C.ar    1  UNL1        0.2634
     23 O         138.3711  145.3967  162.4112 O.2     1  UNL1       -0.2669
     24 N         140.8672  144.7540  162.0851 N.ar    1  UNL1       -0.2774
     25 C         140.8739  145.4532  160.7581 C.3     1  UNL1        0.1351
     26 C         142.1120  144.0831  162.5856 C.ar    1  UNL1        0.1652
     27 N         143.3634  144.1113  161.7590 N.ar    1  UNL1       -0.2234
     28 C         144.6081  143.4404  162.2595 C.ar    1  UNL1        0.1212
     29 C         144.6014  142.7412  163.5866 C.ar    1  UNL1        0.1196
     30 N         143.3501  142.7130  164.4132 N.ar    1  UNL1       -0.2379
     31 C         142.1054  143.3839  163.9127 C.ar    1  UNL1        0.1286
@<TRIPOS>BOND
     1    11    12    1
     2    12    13   ar
     3    13    14   ar
     4    14    15   ar
     5    15     1    1
     6     1     2    2
     7     1     3   am
     8     3     4    1
     9     4     5    1
    10     5     6    1
    11     7     6    1
    12     7     8    1
    13     8     9    1
    14     9    18    1
    15    18    20    1
    16    20    21   ar
    17    21    22   ar
    18    22    23    2
    19    22    24   ar
    20    24    25    1
    21    24    26   ar
    22    26    27   ar
    23    27    28   ar
    24    28    29   ar
    25    29    30   ar
    26    30    31   ar
    27     9    10    1
    28    15    16   ar
    29    16    17    1
    30    16    12   ar
    31     7     3    1
    32    31    20   ar
    33    10     4    1
    34    31    26   ar
    35    18    19    1
@<TRIPOS>MOLECULE
*****
 31 35 0 0 0
SMALL
GASTEIGER

@<TRIPOS>ATOM
      1 C         140.8008  140.6973  166.4126 C.2     1  UNL1        0.2697
      2 O         141.7636  140.8009  165.2670 O.2     1  UNL1       -0.2681
      3 N         139.7070  139.6712  166.3826 N.am    1  UNL1       -0.2779
      4 C         138.6756  139.4506  167.4492 C.3     1  UNL1        0.0773
      5 C         137.7837  138.3287  167.0066 C.3     1  UNL1        0.0216
      6 C         138.2639  137.8560  165.6664 C.3     1  UNL1        0.0216
      7 C         139.4526  138.6857  165.2808 C.3     1  UNL1        0.0773
      8 C         140.6011  139.6578  165.1580 C.3     1  UNL1        0.0393
      9 C         140.7322  140.5803  166.3336 C.3     1  UNL1        0.0724
     10 C         139.7694  140.4767  167.4792 C.3     1  UNL1        0.0393
     11 C         142.3473  142.7860  171.0090 C.3     1  UNL1        0.0750
     12 C         141.6427  142.5797  169.7009 C.ar    1  UNL1        0.1509
     13 O         140.6243  143.4985  169.0936 O.2     1  UNL1       -0.3579
     14 N         140.1850  142.9051  167.7879 N.ar    1  UNL1       -0.0730
     15 C         140.9319  141.6197  167.5882 C.ar    1  UNL1        0.1718
     16 C         141.8328  141.4186  168.7705 C.ar    1  UNL1        0.0364
     17 C         142.7608  140.2598  168.9849 C.3     1  UNL1        0.0358
     18 N         141.8259  141.6063  166.3636 N.pl3   1  UNL1       -0.3326
     19 H         142.0860  142.0238  167.2164 H       1  UNL1        0.1468
     20 C         142.5236  141.9961  165.0942 C.ar    1  UNL1        0.0702
     21 C         143.8036  141.3188  164.7034 C.ar    1  UNL1        0.0767
     22 C         144.5013  141.7086  163.4341 C.ar    1  UNL1        0.2634
     23 O         145.7814  141.0313  163.0433 O.2     1  UNL1       -0.2669
     24 N         143.9189  142.7758  162.5554 N.ar    1  UNL1       -0.2774
     25 C         144.6165  143.1656  161.2861 C.3     1  UNL1        0.1351
     26 C         142.6388  143.4531  162.9462 C.ar    1  UNL1        0.1652
     27 N         142.0564  144.5203  162.0676 N.ar    1  UNL1       -0.2234
     28 C         140.7764  145.1976  162.4584 C.ar    1  UNL1        0.1212
     29 C         140.0787  144.8077  163.7277 C.ar    1  UNL1        0.1196
     30 N         140.6611  143.7406  164.6063 N.ar    1  UNL1       -0.2379
     31 C         141.9411  143.0633  164.2156 C.ar    1  UNL1        0.1286
@<TRIPOS>BOND
     1    11    12    1
     2    12    13   ar
     3    13    14   ar
     4    14    15   ar
     5    15     1    1
     6     1     2    2
     7     1     3   am
     8     3     4    1
     9     4     5    1
    10     5     6    1
    11     7     6    1
    12     7     8    1
    13     8     9    1
    14     9    18    1
    15    18    20    1
    16    20    21   ar
    17    21    22   ar
    18    22    23    2
    19    22    24   ar
    20    24    25    1
    21    24    26   ar
    22    26    27   ar
    23    27    28   ar
    24    28    29   ar
    25    29    30   ar
    26    30    31   ar
    27     9    10    1
    28    15    16   ar
    29    16    17    1
    30    16    12   ar
    31     7     3    1
    32    31    20   ar
    33    10     4    1
    34    31    26   ar
    35    18    19    1
@<TRIPOS>MOLECULE
*****
 31 35 0 0 0
SMALL
GASTEIGER

@<TRIPOS>ATOM
      1 C         141.4190  142.6561  163.6916 C.2     1  UNL1        0.2697
      2 O         140.7980  142.4077  165.0342 O.2     1  UNL1       -0.2681
      3 N         140.9616  143.8153  162.8566 N.am    1  UNL1       -0.2779
      4 C         141.4866  144.1872  161.5016 C.3     1  UNL1        0.0773
      5 C         140.7485  145.4078  161.0375 C.3     1  UNL1        0.0216
      6 C         139.7673  145.7902  162.1058 C.3     1  UNL1        0.0216
      7 C         139.8991  144.8060  163.2301 C.3     1  UNL1        0.0773
      8 C         140.2445  143.6905  164.1868 C.3     1  UNL1        0.0393
      9 C         141.3229  142.7796  163.6792 C.3     1  UNL1        0.0724
     10 C         141.9439  143.0280  162.3366 C.3     1  UNL1        0.0393
     11 C         143.9011  138.6720  161.2737 C.3     1  UNL1        0.0750
     12 C         143.6382  139.9141  162.0726 C.ar    1  UNL1        0.1509
     13 O         144.6751  140.7736  162.7330 O.2     1  UNL1       -0.3579
     14 N         143.9700  141.9053  163.4199 N.ar    1  UNL1       -0.0730
     15 C         142.4973  141.7453  163.1840 C.ar    1  UNL1        0.1718
     16 C         142.2923  140.5147  162.3513 C.ar    1  UNL1        0.0364
     17 C         140.9729  139.9786  161.8801 C.3     1  UNL1        0.0358
     18 N         141.7802  141.6205  164.5142 N.pl3   1  UNL1       -0.3326
     19 H         142.4110  140.9633  164.1407 H       1  UNL1        0.1468
     20 C         141.2764  141.4626  165.9182 C.ar    1  UNL1        0.0702
     21 C         141.8772  142.2755  167.0264 C.ar    1  UNL1        0.0767
     22 C         141.3734  142.1176  168.4305 C.ar    1  UNL1        0.2634
     23 O         141.9743  142.9306  169.5387 O.2     1  UNL1       -0.2669
     24 N         140.2689  141.1468  168.7263 N.ar    1  UNL1       -0.2774
     25 C         139.7652  140.9889  170.1303 C.3     1  UNL1        0.1351
     26 C         139.6681  140.3339  167.6180 C.ar    1  UNL1        0.1652
     27 N         138.5636  139.3631  167.9138 N.ar    1  UNL1       -0.2234
     28 C         137.9628  138.5502  166.8056 C.ar    1  UNL1        0.1212
     29 C         138.4666  138.7081  165.4015 C.ar    1  UNL1        0.1196
     30 N         139.5711  139.6789  165.1057 N.ar    1  UNL1       -0.2379
     31 C         140.1718  140.4918  166.2140 C.ar    1  UNL1        0.1286
@<TRIPOS>BOND
     1    11    12    1
     2    12    13   ar
     3    13    14   ar
     4    14    15   ar
     5    15     1    1
     6     1     2    2
     7     1     3   am
     8     3     4    1
     9     4     5    1
    10     5     6    1
    11     7     6    1
    12     7     8    1
    13     8     9    1
    14     9    18    1
    15    18    20    1
    16    20    21   ar
    17    21    22   ar
    18    22    23    2
    19    22    24   ar
    20    24    25    1
    21    24    26   ar
    22    26    27   ar
    23    27    28   ar
    24    28    29   ar
    25    29    30   ar
    26    30    31   ar
    27     9    10    1
    28    15    16   ar
    29    16    17    1
    30    16    12   ar
    31     7     3    1
    32    31    20   ar
    33    10     4    1
    34    31    26   ar
    35    18    19    1
@<TRIPOS>MOLECULE
*****
 31 35 0 0 0
SMALL
GASTEIGER

@<TRIPOS>ATOM
      1 C         140.4564  141.8526  165.8179 C.2     1  UNL1        0.2697
      2 O         140.6306  140.7811  164.7828 O.2     1  UNL1       -0.2681
      3 N         139.5459  143.0141  165.5492 N.am    1  UNL1       -0.2779
      4 C         139.2733  144.1553  166.4837 C.3     1  UNL1        0.0773
      5 C         138.3071  145.0848  165.8109 C.3     1  UNL1        0.0216
      6 C         137.9827  144.5180  164.4605 C.3     1  UNL1        0.0216
      7 C         138.7483  143.2382  164.2988 C.3     1  UNL1        0.0773
      8 C         139.6217  142.0122  164.4135 C.3     1  UNL1        0.0393
      9 C         140.3580  141.9223  165.7174 C.3     1  UNL1        0.0724
     10 C         140.1837  142.9938  166.7525 C.3     1  UNL1        0.0393
     11 C         141.7642  140.5607  170.7678 C.3     1  UNL1        0.0750
     12 C         141.7937  141.1689  169.3969 C.ar    1  UNL1        0.1509
     13 O         142.8571  142.0801  168.8593 O.2     1  UNL1       -0.3579
     14 N         142.4856  142.4471  167.4532 N.ar    1  UNL1       -0.0730
     15 C         141.1925  141.7628  167.1217 C.ar    1  UNL1        0.1718
     16 C         140.7649  140.9729  168.3230 C.ar    1  UNL1        0.0364
     17 C         139.5261  140.1341  168.4315 C.3     1  UNL1        0.0358
     18 N         141.2683  140.7609  165.9861 N.pl3   1  UNL1       -0.3326
     19 H         141.4398  140.4737  166.9120 H       1  UNL1        0.1468
     20 C         141.9176  140.0369  164.8440 C.ar    1  UNL1        0.0702
     21 C         141.3220  138.7599  164.3298 C.ar    1  UNL1        0.0767
     22 C         141.9713  138.0360  163.1877 C.ar    1  UNL1        0.2634
     23 O         141.3756  136.7589  162.6736 O.2     1  UNL1       -0.2669
     24 N         143.2161  138.5891  162.5598 N.ar    1  UNL1       -0.2774
     25 C         143.8654  137.8651  161.4177 C.3     1  UNL1        0.1351
     26 C         143.8118  139.8662  163.0739 C.ar    1  UNL1        0.1652
     27 N         145.0567  140.4192  162.4460 N.ar    1  UNL1       -0.2234
     28 C         145.6523  141.6963  162.9601 C.ar    1  UNL1        0.1212
     29 C         145.0030  142.4202  164.1022 C.ar    1  UNL1        0.1196
     30 N         143.7581  141.8671  164.7302 N.ar    1  UNL1       -0.2379
     31 C         143.1625  140.5901  164.2160 C.ar    1  UNL1        0.1286
@<TRIPOS>BOND
     1    11    12    1
     2    12    13   ar
     3    13    14   ar
     4    14    15   ar
     5    15     1    1
     6     1     2    2
     7     1     3   am
     8     3     4    1
     9     4     5    1
    10     5     6    1
    11     7     6    1
    12     7     8    1
    13     8     9    1
    14     9    18    1
    15    18    20    1
    16    20    21   ar
    17    21    22   ar
    18    22    23    2
    19    22    24   ar
    20    24    25    1
    21    24    26   ar
    22    26    27   ar
    23    27    28   ar
    24    28    29   ar
    25    29    30   ar
    26    30    31   ar
    27     9    10    1
    28    15    16   ar
    29    16    17    1
    30    16    12   ar
    31     7     3    1
    32    31    20   ar
    33    10     4    1
    34    31    26   ar
    35    18    19    1
