@<TRIPOS>MOLECULE
*****
 29 32 0 0 0
SMALL
GASTEIGER

@<TRIPOS>ATOM
      1 C         140.7935  138.7986  164.0997 C.2     1  UNL1        0.1157
      2 N         140.0615  138.9296  165.4024 N.2     1  UNL1       -0.1790
      3 N         140.7301  140.0073  166.2033 N.pl3   1  UNL1       -0.2060
      4 C         140.4440  140.5706  167.5639 C.ar    1  UNL1        0.1052
      5 C         139.2988  140.0356  168.3715 C.ar    1  UNL1        0.0490
      6 C         139.0128  140.5990  169.7319 C.ar    1  UNL1        0.1416
      7 F         137.8676  140.0640  170.5396 F       1  UNL1       -0.2041
      8 C         139.8719  141.6973  170.2847 C.ar    1  UNL1        0.0328
      9 C         141.0171  142.2323  169.4771 C.ar    1  UNL1        0.0405
     10 C         141.3031  141.6690  168.1167 C.ar    1  UNL1        0.1537
     11 O         142.4484  142.2039  167.3090 O.3     1  UNL1       -0.4723
     12 C         142.7344  141.6406  165.9485 C.3     1  UNL1        0.2277
     13 C         141.8753  140.5423  165.3957 C.3     1  UNL1        0.1488
     14 C         141.9145  139.7953  164.0956 C.3     1  UNL1        0.0806
     15 C         143.0952  140.6742  163.8070 C.ar    1  UNL1       -0.0157
     16 C         144.4486  140.3118  164.3428 C.ar    1  UNL1       -0.0039
     17 C         145.6295  141.1908  164.0542 C.ar    1  UNL1       -0.0003
     18 C         145.4569  142.4320  163.2299 C.ar    1  UNL1       -0.0000
     19 C         144.1035  142.7944  162.6942 C.ar    1  UNL1       -0.0003
     20 C         142.9226  141.9155  162.9827 C.ar    1  UNL1       -0.0039
     21 C         139.5160  138.2475  161.9055 C.3     1  UNL1        0.0786
     22 C         140.4626  137.8392  162.9951 C.2     1  UNL1        0.1887
     23 O         141.0784  136.4715  162.9800 O.2     1  UNL1       -0.2900
     24 C         142.2006  139.2319  162.7351 C.3     1  UNL1        0.0130
     25 C         143.5012  138.5329  162.4711 C.3     1  UNL1        0.0176
     26 C         143.7964  137.9891  161.1047 C.3     1  UNL1        0.0652
     27 N         142.9768  136.8601  160.5536 N.3     1  UNL1       -0.3211
     28 H         143.1372  136.0203  161.1099 H       1  UNL1        0.1189
     29 H         143.2477  136.6839  159.5862 H       1  UNL1        0.1189
@<TRIPOS>BOND
     1    21    22    1
     2    22    23    2
     3    22     1    1
     4     1     2    2
     5     2     3    1
     6     3     4    1
     7     4     5   ar
     8     5     6   ar
     9     6     7    1
    10     6     8   ar
    11     8     9   ar
    12     9    10   ar
    13    10    11    1
    14    11    12    1
    15    13    12    1
    16    13    14    1
    17    14    24    1
    18    24    25    1
    19    25    26    1
    20    26    27    1
    21    14    15    1
    22    15    16   ar
    23    16    17   ar
    24    17    18   ar
    25    18    19   ar
    26    19    20   ar
    27    14     1    1
    28    20    15   ar
    29    13     3    1
    30    10     4   ar
    31    27    28    1
    32    27    29    1
@<TRIPOS>MOLECULE
*****
 29 32 0 0 0
SMALL
GASTEIGER

@<TRIPOS>ATOM
      1 C         143.8961  141.6858  164.3441 C.2     1  UNL1        0.1157
      2 N         143.9344  142.2272  165.7424 N.2     1  UNL1       -0.1790
      3 N         142.8855  141.5152  166.5441 N.pl3   1  UNL1       -0.2060
      4 C         142.4669  141.6338  167.9796 C.ar    1  UNL1        0.1052
      5 C         143.1536  142.6152  168.8825 C.ar    1  UNL1        0.0490
      6 C         142.7349  142.7338  170.3179 C.ar    1  UNL1        0.1416
      7 F         143.4216  143.7153  171.2209 F       1  UNL1       -0.2041
      8 C         141.6296  141.8709  170.8506 C.ar    1  UNL1        0.0328
      9 C         140.9429  140.8894  169.9477 C.ar    1  UNL1        0.0405
     10 C         141.3616  140.7709  168.5123 C.ar    1  UNL1        0.1537
     11 O         140.6749  139.7894  167.6093 O.3     1  UNL1       -0.4723
     12 C         141.0935  139.6708  166.1739 C.3     1  UNL1        0.2277
     13 C         142.1988  140.5337  165.6412 C.3     1  UNL1        0.1488
     14 C         142.8234  140.6392  164.2815 C.3     1  UNL1        0.0806
     15 C         141.8382  139.5678  163.9189 C.ar    1  UNL1       -0.0157
     16 C         142.1011  138.1437  164.3099 C.ar    1  UNL1       -0.0039
     17 C         141.1159  137.0722  163.9472 C.ar    1  UNL1       -0.0003
     18 C         139.8679  137.4249  163.1935 C.ar    1  UNL1       -0.0000
     19 C         139.6050  138.8489  162.8025 C.ar    1  UNL1       -0.0003
     20 C         140.5902  139.9204  163.1652 C.ar    1  UNL1       -0.0039
     21 C         144.2535  143.0680  162.1734 C.3     1  UNL1        0.0786
     22 C         144.7759  142.1156  163.2077 C.2     1  UNL1        0.1887
     23 O         146.1782  141.5929  163.1058 O.2     1  UNL1       -0.2900
     24 C         143.2420  140.5206  162.8460 C.3     1  UNL1        0.0130
     25 C         143.9930  139.3081  162.3814 C.3     1  UNL1        0.0176
     26 C         143.7467  138.7532  161.0098 C.3     1  UNL1        0.0652
     27 N         143.1126  137.4033  160.8496 N.3     1  UNL1       -0.3211
     28 H         143.7413  136.6870  161.2131 H       1  UNL1        0.1189
     29 H         142.9322  137.2275  159.8612 H       1  UNL1        0.1189
@<TRIPOS>BOND
     1    21    22    1
     2    22    23    2
     3    22     1    1
     4     1     2    2
     5     2     3    1
     6     3     4    1
     7     4     5   ar
     8     5     6   ar
     9     6     7    1
    10     6     8   ar
    11     8     9   ar
    12     9    10   ar
    13    10    11    1
    14    11    12    1
    15    13    12    1
    16    13    14    1
    17    14    24    1
    18    24    25    1
    19    25    26    1
    20    26    27    1
    21    14    15    1
    22    15    16   ar
    23    16    17   ar
    24    17    18   ar
    25    18    19   ar
    26    19    20   ar
    27    14     1    1
    28    20    15   ar
    29    13     3    1
    30    10     4   ar
    31    27    28    1
    32    27    29    1
@<TRIPOS>MOLECULE
*****
 29 32 0 0 0
SMALL
GASTEIGER

@<TRIPOS>ATOM
      1 C         139.2545  141.1550  164.4006 C.2     1  UNL1        0.1157
      2 N         139.1655  140.7070  165.8294 N.2     1  UNL1       -0.1790
      3 N         140.4091  141.1596  166.5354 N.pl3   1  UNL1       -0.2060
      4 C         140.8714  141.0031  167.9538 C.ar    1  UNL1        0.1052
      5 C         140.0137  140.2754  168.9462 C.ar    1  UNL1        0.0490
      6 C         140.4760  140.1189  170.3645 C.ar    1  UNL1        0.1416
      7 F         139.6184  139.3912  171.3570 F       1  UNL1       -0.2041
      8 C         141.7960  140.6901  170.7905 C.ar    1  UNL1        0.0328
      9 C         142.6536  141.4178  169.7981 C.ar    1  UNL1        0.0405
     10 C         142.1913  141.5743  168.3798 C.ar    1  UNL1        0.1537
     11 O         143.0490  142.3020  167.3873 O.3     1  UNL1       -0.4723
     12 C         142.5867  142.4585  165.9690 C.3     1  UNL1        0.2277
     13 C         141.2668  141.8873  165.5430 C.3     1  UNL1        0.1488
     14 C         140.5532  141.8845  164.2236 C.3     1  UNL1        0.0806
     15 C         141.7552  142.6466  163.7501 C.ar    1  UNL1       -0.0157
     16 C         142.8348  141.9430  162.9825 C.ar    1  UNL1       -0.0039
     17 C         144.0369  142.7052  162.5089 C.ar    1  UNL1       -0.0003
     18 C         144.1593  144.1710  162.8030 C.ar    1  UNL1       -0.0000
     19 C         143.0797  144.8746  163.5706 C.ar    1  UNL1       -0.0003
     20 C         141.8776  144.1124  164.0442 C.ar    1  UNL1       -0.0039
     21 C         138.3157  139.6967  162.4662 C.3     1  UNL1        0.0786
     22 C         138.2255  140.9155  163.3357 C.2     1  UNL1        0.1887
     23 O         137.1063  141.8950  163.1405 O.2     1  UNL1       -0.2900
     24 C         140.0909  142.0410  162.8052 C.3     1  UNL1        0.0130
     25 C         139.8799  143.4109  162.2320 C.3     1  UNL1        0.0176
     26 C         139.4813  143.5693  160.7946 C.3     1  UNL1        0.0652
     27 N         138.1884  142.9862  160.3062 N.3     1  UNL1       -0.3211
     28 H         138.2326  141.9685  160.3600 H       1  UNL1        0.1189
     29 H         138.0318  143.2690  159.3388 H       1  UNL1        0.1189
@<TRIPOS>BOND
     1    21    22    1
     2    22    23    2
     3    22     1    1
     4     1     2    2
     5     2     3    1
     6     3     4    1
     7     4     5   ar
     8     5     6   ar
     9     6     7    1
    10     6     8   ar
    11     8     9   ar
    12     9    10   ar
    13    10    11    1
    14    11    12    1
    15    13    12    1
    16    13    14    1
    17    14    24    1
    18    24    25    1
    19    25    26    1
    20    26    27    1
    21    14    15    1
    22    15    16   ar
    23    16    17   ar
    24    17    18   ar
    25    18    19   ar
    26    19    20   ar
    27    14     1    1
    28    20    15   ar
    29    13     3    1
    30    10     4   ar
    31    27    28    1
    32    27    29    1
@<TRIPOS>MOLECULE
*****
 29 32 0 0 0
SMALL
GASTEIGER

@<TRIPOS>ATOM
      1 C         139.4540  143.1557  163.9257 C.2     1  UNL1        0.1157
      2 N         139.3553  143.0962  165.4213 N.2     1  UNL1       -0.1790
      3 N         140.7291  142.8410  165.9666 N.pl3   1  UNL1       -0.2060
      4 C         141.2396  142.6854  167.3686 C.ar    1  UNL1        0.1052
      5 C         140.2919  142.7838  168.5270 C.ar    1  UNL1        0.0490
      6 C         140.8023  142.6282  169.9289 C.ar    1  UNL1        0.1416
      7 F         139.8546  142.7266  171.0874 F       1  UNL1       -0.2041
      8 C         142.2605  142.3743  170.1722 C.ar    1  UNL1        0.0328
      9 C         143.2082  142.2759  169.0138 C.ar    1  UNL1        0.0405
     10 C         142.6978  142.4315  167.6119 C.ar    1  UNL1        0.1537
     11 O         143.6455  142.3331  166.4534 O.3     1  UNL1       -0.4723
     12 C         143.1351  142.4887  165.0516 C.3     1  UNL1        0.2277
     13 C         141.6769  142.7426  164.8082 C.3     1  UNL1        0.1488
     14 C         140.8888  142.9371  163.5468 C.3     1  UNL1        0.0806
     15 C         142.2168  142.7511  162.8748 C.ar    1  UNL1       -0.0157
     16 C         143.2112  143.8739  162.8551 C.ar    1  UNL1       -0.0039
     17 C         144.5394  143.6880  162.1831 C.ar    1  UNL1       -0.0003
     18 C         144.8731  142.3791  161.5307 C.ar    1  UNL1       -0.0000
     19 C         143.8787  141.2563  161.5504 C.ar    1  UNL1       -0.0003
     20 C         142.5505  141.4422  162.2224 C.ar    1  UNL1       -0.0039
     21 C         137.7053  142.2392  162.2368 C.3     1  UNL1        0.0786
     22 C         138.3173  143.3921  162.9758 C.2     1  UNL1        0.1887
     23 O         137.7928  144.7815  162.7650 O.2     1  UNL1       -0.2900
     24 C         140.3783  143.0927  162.1449 C.3     1  UNL1        0.0130
     25 C         141.0222  144.0803  161.2176 C.3     1  UNL1        0.0176
     26 C         140.4144  145.4386  161.0290 C.3     1  UNL1        0.0652
     27 N         140.3421  146.3946  162.1827 N.3     1  UNL1       -0.3211
     28 H         139.7119  146.0228  162.8933 H       1  UNL1        0.1189
     29 H         139.9926  147.2956  161.8562 H       1  UNL1        0.1189
@<TRIPOS>BOND
     1    21    22    1
     2    22    23    2
     3    22     1    1
     4     1     2    2
     5     2     3    1
     6     3     4    1
     7     4     5   ar
     8     5     6   ar
     9     6     7    1
    10     6     8   ar
    11     8     9   ar
    12     9    10   ar
    13    10    11    1
    14    11    12    1
    15    13    12    1
    16    13    14    1
    17    14    24    1
    18    24    25    1
    19    25    26    1
    20    26    27    1
    21    14    15    1
    22    15    16   ar
    23    16    17   ar
    24    17    18   ar
    25    18    19   ar
    26    19    20   ar
    27    14     1    1
    28    20    15   ar
    29    13     3    1
    30    10     4   ar
    31    27    28    1
    32    27    29    1
@<TRIPOS>MOLECULE
*****
 29 32 0 0 0
SMALL
GASTEIGER

@<TRIPOS>ATOM
      1 C         143.4075  140.8294  163.7734 C.2     1  UNL1        0.1157
      2 N         143.5038  140.1817  165.1229 N.2     1  UNL1       -0.1790
      3 N         142.3180  140.6171  165.9317 N.pl3   1  UNL1       -0.2060
      4 C         141.8862  140.2973  167.3322 C.ar    1  UNL1        0.1052
      5 C         142.7154  139.3805  168.1818 C.ar    1  UNL1        0.0490
      6 C         142.2835  139.0607  169.5822 C.ar    1  UNL1        0.1416
      7 F         143.1127  138.1438  170.4319 F       1  UNL1       -0.2041
      8 C         141.0224  139.6576  170.1329 C.ar    1  UNL1        0.0328
      9 C         140.1932  140.5744  169.2833 C.ar    1  UNL1        0.0405
     10 C         140.6251  140.8942  167.8829 C.ar    1  UNL1        0.1537
     11 O         139.7959  141.8110  167.0332 O.3     1  UNL1       -0.4723
     12 C         140.2277  142.1309  165.6328 C.3     1  UNL1        0.2277
     13 C         141.4888  141.5339  165.0821 C.3     1  UNL1        0.1488
     14 C         142.1622  141.6651  163.7482 C.3     1  UNL1        0.0806
     15 C         141.0071  142.5677  163.4301 C.ar    1  UNL1       -0.0157
     16 C         139.8760  142.0675  162.5814 C.ar    1  UNL1       -0.0039
     17 C         138.7209  142.9701  162.2633 C.ar    1  UNL1       -0.0003
     18 C         138.6969  144.3729  162.7940 C.ar    1  UNL1       -0.0000
     19 C         139.8280  144.8731  163.6427 C.ar    1  UNL1       -0.0003
     20 C         140.9832  143.9705  163.9608 C.ar    1  UNL1       -0.0039
     21 C         144.1214  139.6680  161.5617 C.3     1  UNL1        0.0786
     22 C         144.3850  140.6694  162.6469 C.2     1  UNL1        0.1887
     23 O         145.6261  141.5108  162.6056 O.2     1  UNL1       -0.2900
     24 C         142.5940  141.9850  162.3477 C.3     1  UNL1        0.0130
     25 C         142.9296  143.3974  161.9704 C.3     1  UNL1        0.0176
     26 C         142.5462  143.9240  160.6193 C.3     1  UNL1        0.0652
     27 N         141.7331  145.1795  160.5066 N.3     1  UNL1       -0.3211
     28 H         140.8046  145.0194  160.8971 H       1  UNL1        0.1189
     29 H         141.6484  145.4427  159.5248 H       1  UNL1        0.1189
@<TRIPOS>BOND
     1    21    22    1
     2    22    23    2
     3    22     1    1
     4     1     2    2
     5     2     3    1
     6     3     4    1
     7     4     5   ar
     8     5     6   ar
     9     6     7    1
    10     6     8   ar
    11     8     9   ar
    12     9    10   ar
    13    10    11    1
    14    11    12    1
    15    13    12    1
    16    13    14    1
    17    14    24    1
    18    24    25    1
    19    25    26    1
    20    26    27    1
    21    14    15    1
    22    15    16   ar
    23    16    17   ar
    24    17    18   ar
    25    18    19   ar
    26    19    20   ar
    27    14     1    1
    28    20    15   ar
    29    13     3    1
    30    10     4   ar
    31    27    28    1
    32    27    29    1
@<TRIPOS>MOLECULE
*****
 29 32 0 0 0
SMALL
GASTEIGER

@<TRIPOS>ATOM
      1 C         141.4539  139.1463  164.4051 C.2     1  UNL1        0.1157
      2 N         141.9931  139.0646  165.8025 N.2     1  UNL1       -0.1790
      3 N         141.5289  140.2792  166.5501 N.pl3   1  UNL1       -0.2060
      4 C         141.7517  140.7349  167.9618 C.ar    1  UNL1        0.1052
      5 C         142.5779  139.9025  168.8970 C.ar    1  UNL1        0.0490
      6 C         142.8007  140.3582  170.3086 C.ar    1  UNL1        0.1416
      7 F         143.6269  139.5258  171.2439 F       1  UNL1       -0.2041
      8 C         142.1973  141.6462  170.7850 C.ar    1  UNL1        0.0328
      9 C         141.3711  142.4786  169.8499 C.ar    1  UNL1        0.0405
     10 C         141.1483  142.0229  168.4383 C.ar    1  UNL1        0.1537
     11 O         140.3221  142.8553  167.5030 O.3     1  UNL1       -0.4723
     12 C         140.0993  142.3996  166.0914 C.3     1  UNL1        0.2277
     13 C         140.7027  141.1116  165.6149 C.3     1  UNL1        0.1488
     14 C         140.6564  140.4114  164.2892 C.3     1  UNL1        0.0806
     15 C         139.8123  141.5812  163.8782 C.ar    1  UNL1       -0.0157
     16 C         138.3637  141.6332  164.2642 C.ar    1  UNL1       -0.0039
     17 C         137.5195  142.8031  163.8532 C.ar    1  UNL1       -0.0003
     18 C         138.1239  143.9209  163.0562 C.ar    1  UNL1       -0.0000
     19 C         139.5725  143.8689  162.6702 C.ar    1  UNL1       -0.0003
     20 C         140.4167  142.6990  163.0812 C.ar    1  UNL1       -0.0039
     21 C         142.7852  138.3345  162.3269 C.3     1  UNL1        0.0786
     22 C         141.6736  138.1395  163.3150 C.2     1  UNL1        0.1887
     23 O         140.7817  136.9378  163.2131 O.2     1  UNL1       -0.2900
     24 C         140.4335  139.9557  162.8775 C.3     1  UNL1        0.0130
     25 C         139.0416  139.6883  162.3866 C.3     1  UNL1        0.0176
     26 C         138.8273  139.0979  161.0245 C.3     1  UNL1        0.0652
     27 N         139.2296  137.6791  160.7502 N.3     1  UNL1       -0.3211
     28 H         140.2440  137.5948  160.8150 H       1  UNL1        0.1189
     29 H         138.9257  137.4146  159.8131 H       1  UNL1        0.1189
@<TRIPOS>BOND
     1    21    22    1
     2    22    23    2
     3    22     1    1
     4     1     2    2
     5     2     3    1
     6     3     4    1
     7     4     5   ar
     8     5     6   ar
     9     6     7    1
    10     6     8   ar
    11     8     9   ar
    12     9    10   ar
    13    10    11    1
    14    11    12    1
    15    13    12    1
    16    13    14    1
    17    14    24    1
    18    24    25    1
    19    25    26    1
    20    26    27    1
    21    14    15    1
    22    15    16   ar
    23    16    17   ar
    24    17    18   ar
    25    18    19   ar
    26    19    20   ar
    27    14     1    1
    28    20    15   ar
    29    13     3    1
    30    10     4   ar
    31    27    28    1
    32    27    29    1
@<TRIPOS>MOLECULE
*****
 29 32 0 0 0
SMALL
GASTEIGER

@<TRIPOS>ATOM
      1 C         142.9701  143.2561  164.6400 C.2     1  UNL1        0.1157
      2 N         143.3146  142.6548  165.9704 N.2     1  UNL1       -0.1790
      3 N         142.0908  141.9673  166.4991 N.pl3   1  UNL1       -0.2060
      4 C         141.8366  141.2035  167.7649 C.ar    1  UNL1        0.1052
      5 C         142.9374  141.0271  168.7683 C.ar    1  UNL1        0.0490
      6 C         142.6832  140.2632  170.0339 C.ar    1  UNL1        0.1416
      7 F         143.7841  140.0868  171.0375 F       1  UNL1       -0.2041
      8 C         141.3282  139.6757  170.2961 C.ar    1  UNL1        0.0328
      9 C         140.2274  139.8521  169.2927 C.ar    1  UNL1        0.0405
     10 C         140.4816  140.6160  168.0270 C.ar    1  UNL1        0.1537
     11 O         139.3807  140.7924  167.0235 O.3     1  UNL1       -0.4723
     12 C         139.6349  141.5563  165.7579 C.3     1  UNL1        0.2277
     13 C         140.9899  142.1437  165.4957 C.3     1  UNL1        0.1488
     14 C         141.5334  142.9402  164.3467 C.3     1  UNL1        0.0806
     15 C         140.1498  142.7841  163.7887 C.ar    1  UNL1       -0.0157
     16 C         139.8767  141.7468  162.7402 C.ar    1  UNL1       -0.0039
     17 C         138.4930  141.5906  162.1821 C.ar    1  UNL1       -0.0003
     18 C         137.3826  142.4717  162.6727 C.ar    1  UNL1       -0.0000
     19 C         137.6557  143.5090  163.7212 C.ar    1  UNL1       -0.0003
     20 C         139.0394  143.6652  164.2793 C.ar    1  UNL1       -0.0039
     21 C         144.6164  143.3517  162.6324 C.3     1  UNL1        0.0786
     22 C         143.8992  144.0363  163.7579 C.2     1  UNL1        0.1887
     23 O         144.1111  145.5012  164.0015 O.2     1  UNL1       -0.2900
     24 C         141.7875  143.7041  163.0810 C.3     1  UNL1        0.0130
     25 C         141.0514  144.9841  162.8168 C.3     1  UNL1        0.0176
     26 C         140.7342  145.3897  161.4080 C.3     1  UNL1        0.0652
     27 N         139.5248  144.8291  160.7203 N.3     1  UNL1       -0.3211
     28 H         139.6449  143.8251  160.5858 H       1  UNL1        0.1189
     29 H         139.4086  145.2820  159.8137 H       1  UNL1        0.1189
@<TRIPOS>BOND
     1    21    22    1
     2    22    23    2
     3    22     1    1
     4     1     2    2
     5     2     3    1
     6     3     4    1
     7     4     5   ar
     8     5     6   ar
     9     6     7    1
    10     6     8   ar
    11     8     9   ar
    12     9    10   ar
    13    10    11    1
    14    11    12    1
    15    13    12    1
    16    13    14    1
    17    14    24    1
    18    24    25    1
    19    25    26    1
    20    26    27    1
    21    14    15    1
    22    15    16   ar
    23    16    17   ar
    24    17    18   ar
    25    18    19   ar
    26    19    20   ar
    27    14     1    1
    28    20    15   ar
    29    13     3    1
    30    10     4   ar
    31    27    28    1
    32    27    29    1
@<TRIPOS>MOLECULE
*****
 29 32 0 0 0
SMALL
GASTEIGER

@<TRIPOS>ATOM
      1 C         141.7791  143.1750  163.5331 C.2     1  UNL1        0.1157
      2 N         142.3094  143.2962  164.9310 N.2     1  UNL1       -0.1790
      3 N         142.0834  141.9872  165.6276 N.pl3   1  UNL1       -0.2060
      4 C         142.4012  141.5221  167.0179 C.ar    1  UNL1        0.1052
      5 C         143.0712  142.4524  167.9852 C.ar    1  UNL1        0.0490
      6 C         143.3889  141.9873  169.3754 C.ar    1  UNL1        0.1416
      7 F         144.0589  142.9176  170.3428 F       1  UNL1       -0.2041
      8 C         143.0366  140.5919  169.7983 C.ar    1  UNL1        0.0328
      9 C         142.3666  139.6616  168.8311 C.ar    1  UNL1        0.0405
     10 C         142.0489  140.1267  167.4409 C.ar    1  UNL1        0.1537
     11 O         141.3789  139.1965  166.4735 O.3     1  UNL1       -0.4723
     12 C         141.0611  139.6616  165.0833 C.3     1  UNL1        0.2277
     13 C         141.4134  141.0569  164.6604 C.3     1  UNL1        0.1488
     14 C         141.2253  141.7910  163.3659 C.3     1  UNL1        0.0806
     15 C         140.6051  140.5043  162.9080 C.ar    1  UNL1       -0.0157
     16 C         139.1996  140.1654  163.3073 C.ar    1  UNL1       -0.0039
     17 C         138.5793  138.8786  162.8494 C.ar    1  UNL1       -0.0003
     18 C         139.3647  137.9308  161.9921 C.ar    1  UNL1       -0.0000
     19 C         140.7702  138.2697  161.5928 C.ar    1  UNL1       -0.0003
     20 C         141.3905  139.5565  162.0507 C.ar    1  UNL1       -0.0039
     21 C         140.8593  145.4138  162.5887 C.3     1  UNL1        0.0786
     22 C         141.7991  144.2491  162.4863 C.2     1  UNL1        0.1887
     23 O         142.7588  144.1586  161.3371 O.2     1  UNL1       -0.2900
     24 C         140.9076  142.2561  161.9756 C.3     1  UNL1        0.0130
     25 C         139.5596  141.9754  161.3806 C.3     1  UNL1        0.0176
     26 C         138.6157  143.1057  161.0952 C.3     1  UNL1        0.0652
     27 N         137.7167  143.6238  162.1784 N.3     1  UNL1       -0.3211
     28 H         137.0446  142.9014  162.4370 H       1  UNL1        0.1189
     29 H         137.2179  144.4473  161.8414 H       1  UNL1        0.1189
@<TRIPOS>BOND
     1    21    22    1
     2    22    23    2
     3    22     1    1
     4     1     2    2
     5     2     3    1
     6     3     4    1
     7     4     5   ar
     8     5     6   ar
     9     6     7    1
    10     6     8   ar
    11     8     9   ar
    12     9    10   ar
    13    10    11    1
    14    11    12    1
    15    13    12    1
    16    13    14    1
    17    14    24    1
    18    24    25    1
    19    25    26    1
    20    26    27    1
    21    14    15    1
    22    15    16   ar
    23    16    17   ar
    24    17    18   ar
    25    18    19   ar
    26    19    20   ar
    27    14     1    1
    28    20    15   ar
    29    13     3    1
    30    10     4   ar
    31    27    28    1
    32    27    29    1
@<TRIPOS>MOLECULE
*****
 29 32 0 0 0
SMALL
GASTEIGER

@<TRIPOS>ATOM
      1 C         139.3480  139.0606  162.7255 C.2     1  UNL1        0.1157
      2 N         139.1950  138.9552  161.2371 N.2     1  UNL1       -0.1790
      3 N         138.9404  140.3319  160.6987 N.pl3   1  UNL1       -0.2060
      4 C         138.7119  140.8383  159.3054 C.ar    1  UNL1        0.1052
      5 C         138.7162  139.8821  158.1497 C.ar    1  UNL1        0.0490
      6 C         138.4877  140.3885  156.7564 C.ar    1  UNL1        0.1416
      7 F         138.4920  139.4323  155.6007 F       1  UNL1       -0.2041
      8 C         138.2549  141.8512  156.5188 C.ar    1  UNL1        0.0328
      9 C         138.2506  142.8074  157.6744 C.ar    1  UNL1        0.0405
     10 C         138.4791  142.3010  159.0677 C.ar    1  UNL1        0.1537
     11 O         138.4748  143.2572  160.2235 O.3     1  UNL1       -0.4723
     12 C         138.7033  142.7508  161.6167 C.3     1  UNL1        0.2277
     13 C         138.9361  141.2881  161.8544 C.3     1  UNL1        0.1488
     14 C         139.1880  140.5024  163.1070 C.3     1  UNL1        0.0806
     15 C         139.0758  141.8384  163.7798 C.ar    1  UNL1       -0.0157
     16 C         140.3144  142.5736  164.1985 C.ar    1  UNL1       -0.0039
     17 C         140.2022  143.9096  164.8713 C.ar    1  UNL1       -0.0003
     18 C         138.8514  144.5103  165.1255 C.ar    1  UNL1       -0.0000
     19 C         137.6128  143.7750  164.7068 C.ar    1  UNL1       -0.0003
     20 C         137.7250  142.4390  164.0340 C.ar    1  UNL1       -0.0039
     21 C         141.0198  137.6126  164.0888 C.3     1  UNL1        0.0786
     22 C         139.6143  137.9237  163.6672 C.2     1  UNL1        0.1887
     23 O         138.4751  137.0980  164.1871 O.2     1  UNL1       -0.2900
     24 C         139.4165  139.9960  164.5004 C.3     1  UNL1        0.0130
     25 C         138.3226  140.0923  165.5222 C.3     1  UNL1        0.0176
     26 C         138.3733  139.2428  166.7574 C.3     1  UNL1        0.0652
     27 N         137.3501  138.1667  166.9701 N.3     1  UNL1       -0.3211
     28 H         136.4307  138.5912  167.0924 H       1  UNL1        0.1189
     29 H         137.5900  137.6293  167.8031 H       1  UNL1        0.1189
@<TRIPOS>BOND
     1    21    22    1
     2    22    23    2
     3    22     1    1
     4     1     2    2
     5     2     3    1
     6     3     4    1
     7     4     5   ar
     8     5     6   ar
     9     6     7    1
    10     6     8   ar
    11     8     9   ar
    12     9    10   ar
    13    10    11    1
    14    11    12    1
    15    13    12    1
    16    13    14    1
    17    14    24    1
    18    24    25    1
    19    25    26    1
    20    26    27    1
    21    14    15    1
    22    15    16   ar
    23    16    17   ar
    24    17    18   ar
    25    18    19   ar
    26    19    20   ar
    27    14     1    1
    28    20    15   ar
    29    13     3    1
    30    10     4   ar
    31    27    28    1
    32    27    29    1
