@<TRIPOS>MOLECULE
*****
 37 41 0 0 0
SMALL
GASTEIGER

@<TRIPOS>ATOM
      1 C         139.3563  138.3825  165.1061 C.3     1  UNL1        0.0546
      2 C         138.5618  138.8201  166.3008 C.3     1  UNL1        0.0180
      3 C         139.4851  139.5528  167.2285 C.3     1  UNL1        0.0310
      4 C         139.5648  140.2760  168.5402 C.3     1  UNL1        0.0939
      5 N         140.9792  140.7383  168.7295 N.am    1  UNL1       -0.2790
      6 C         141.5064  141.5037  169.9069 C.2     1  UNL1        0.2261
      7 C         140.5878  141.8732  171.0336 C.3     1  UNL1        0.0948
      8 O         142.9524  141.8997  169.9574 O.2     1  UNL1       -0.2749
      9 C         141.7737  140.3007  167.5348 C.3     1  UNL1        0.1020
     10 C         140.8503  139.5681  166.6071 C.3     1  UNL1        0.0902
     11 C         140.7707  138.8448  165.2954 C.3     1  UNL1        0.0261
     12 C         142.2155  139.5833  165.9858 C.2     1  UNL1        0.2267
     13 O         143.2363  138.5626  166.3930 O.2     1  UNL1       -0.2748
     14 N         142.5598  140.6194  164.9571 N.am    1  UNL1       -0.2750
     15 C         143.9249  140.6347  164.3358 C.3     1  UNL1        0.1000
     16 C         144.2692  141.6708  163.3072 C.3     1  UNL1        0.0670
     17 C         143.2483  142.6916  162.9000 C.ar    1  UNL1        0.0583
     18 N         143.5926  143.7277  161.8713 N.ar    1  UNL1       -0.2484
     19 C         142.5717  144.7484  161.4641 C.ar    1  UNL1        0.1023
     20 C         141.2065  144.7331  162.0855 C.ar    1  UNL1        0.0902
     21 C         140.8623  143.6971  163.1141 C.ar    1  UNL1        0.0040
     22 C         141.8832  142.6763  163.5213 C.ar    1  UNL1        0.0113
     23 C         141.5389  141.6402  164.5499 C.3     1  UNL1        0.1213
     24 C         140.1857  145.7539  161.6783 C.3     1  UNL1        0.4200
     25 F         139.1648  146.7747  161.2711 F       1  UNL1       -0.1658
     26 F         139.5416  145.6486  163.0289 F       1  UNL1       -0.1658
     27 F         140.8297  145.8592  160.3277 F       1  UNL1       -0.1658
     28 N         138.8290  137.6171  163.9287 N.3     1  UNL1       -0.2975
     29 H         139.3688  136.7534  163.8733 H       1  UNL1        0.1232
     30 C         140.0558  138.0515  161.6801 C.3     1  UNL1        0.1591
     31 C         140.0822  138.6671  160.3125 C.3     1  UNL1        0.1729
     32 O         138.9083  139.4640  159.8259 O.3     1  UNL1       -0.3511
     33 C         137.7078  139.6453  160.7070 C.3     1  UNL1        0.1437
     34 C         137.6814  139.0297  162.0746 C.3     1  UNL1        0.0503
     35 C         138.8554  138.2327  162.5611 C.3     1  UNL1        0.0865
     36 C         142.5848  137.8920  162.2533 C.3     1  UNL1        0.1742
     37 O         141.2297  137.2546  162.1667 O.3     1  UNL1       -0.3496
@<TRIPOS>BOND
     1    36    37    1
     2    37    30    1
     3    30    31    1
     4    31    32    1
     5    32    33    1
     6    33    34    1
     7    34    35    1
     8    35    28    1
     9     1    28    1
    10     1     2    1
    11     3     2    1
    12     3     4    1
    13     4     5    1
    14     5     6   am
    15     6     7    1
    16     6     8    2
    17     5     9    1
    18     9    10    1
    19    10    12    1
    20    12    13    2
    21    12    14   am
    22    14    15    1
    23    15    16    1
    24    16    17    1
    25    17    18   ar
    26    18    19   ar
    27    19    20   ar
    28    20    24    1
    29    24    25    1
    30    24    26    1
    31    24    27    1
    32    20    21   ar
    33    21    22   ar
    34    22    23    1
    35    10    11    1
    36    35    30    1
    37    11     1    1
    38    10     3    1
    39    23    14    1
    40    22    17   ar
    41    28    29    1
@<TRIPOS>MOLECULE
*****
 37 41 0 0 0
SMALL
GASTEIGER

@<TRIPOS>ATOM
      1 C         139.1870  138.7414  165.3265 C.3     1  UNL1        0.0546
      2 C         138.5386  139.1500  166.6160 C.3     1  UNL1        0.0180
      3 C         139.6078  139.6799  167.5248 C.3     1  UNL1        0.0310
      4 C         139.8678  140.2600  168.8835 C.3     1  UNL1        0.0939
      5 N         141.3377  140.5375  168.9954 N.am    1  UNL1       -0.2790
      6 C         142.0365  141.1211  170.1876 C.2     1  UNL1        0.2261
      7 C         141.2521  141.4830  171.4138 C.3     1  UNL1        0.0948
      8 O         143.5196  141.3428  170.1534 O.2     1  UNL1       -0.2749
      9 C         141.9861  140.1289  167.7060 C.3     1  UNL1        0.1020
     10 C         140.9169  139.5990  166.7971 C.3     1  UNL1        0.0902
     11 C         140.6569  139.0189  165.4385 C.3     1  UNL1        0.0261
     12 C         142.2260  139.5179  166.0694 C.2     1  UNL1        0.2267
     13 O         143.2170  138.4495  166.4250 O.2     1  UNL1       -0.2748
     14 N         142.5442  140.5054  164.9859 N.am    1  UNL1       -0.2750
     15 C         143.8533  140.4244  164.2582 C.3     1  UNL1        0.1000
     16 C         144.1715  141.4118  163.1748 C.3     1  UNL1        0.0670
     17 C         143.1805  142.4802  162.8191 C.ar    1  UNL1        0.0583
     18 N         143.4987  143.4676  161.7357 N.ar    1  UNL1       -0.2484
     19 C         142.5077  144.5360  161.3800 C.ar    1  UNL1        0.1023
     20 C         141.1986  144.6170  162.1078 C.ar    1  UNL1        0.0902
     21 C         140.8804  143.6296  163.1912 C.ar    1  UNL1        0.0040
     22 C         141.8714  142.5612  163.5469 C.ar    1  UNL1        0.0113
     23 C         141.5533  141.5738  164.6302 C.3     1  UNL1        0.1213
     24 C         140.2076  145.6854  161.7521 C.3     1  UNL1        0.4200
     25 F         139.2166  146.7538  161.3965 F       1  UNL1       -0.1658
     26 F         139.5901  145.5659  163.1139 F       1  UNL1       -0.1658
     27 F         140.8251  145.8048  160.3904 F       1  UNL1       -0.1658
     28 N         138.4882  138.1578  164.1344 N.3     1  UNL1       -0.2975
     29 H         138.7630  137.1768  164.0830 H       1  UNL1        0.1232
     30 C         138.4286  140.1939  162.5217 C.3     1  UNL1        0.1591
     31 C         138.6548  140.7788  161.1591 C.3     1  UNL1        0.1729
     32 O         139.1667  139.9127  160.0466 O.3     1  UNL1       -0.3511
     33 C         139.4525  138.4615  160.2966 C.3     1  UNL1        0.1437
     34 C         139.2263  137.8765  161.6592 C.3     1  UNL1        0.0503
     35 C         138.7144  138.7428  162.7718 C.3     1  UNL1        0.0865
     36 C         137.4071  142.4392  163.3372 C.3     1  UNL1        0.1742
     37 O         137.9167  141.0600  163.6342 O.3     1  UNL1       -0.3496
@<TRIPOS>BOND
     1    36    37    1
     2    37    30    1
     3    30    31    1
     4    31    32    1
     5    32    33    1
     6    33    34    1
     7    34    35    1
     8    35    28    1
     9     1    28    1
    10     1     2    1
    11     3     2    1
    12     3     4    1
    13     4     5    1
    14     5     6   am
    15     6     7    1
    16     6     8    2
    17     5     9    1
    18     9    10    1
    19    10    12    1
    20    12    13    2
    21    12    14   am
    22    14    15    1
    23    15    16    1
    24    16    17    1
    25    17    18   ar
    26    18    19   ar
    27    19    20   ar
    28    20    24    1
    29    24    25    1
    30    24    26    1
    31    24    27    1
    32    20    21   ar
    33    21    22   ar
    34    22    23    1
    35    10    11    1
    36    35    30    1
    37    11     1    1
    38    10     3    1
    39    23    14    1
    40    22    17   ar
    41    28    29    1
@<TRIPOS>MOLECULE
*****
 37 41 0 0 0
SMALL
GASTEIGER

@<TRIPOS>ATOM
      1 C         143.7820  139.5775  164.6219 C.3     1  UNL1        0.0546
      2 C         142.9023  138.7853  165.5430 C.3     1  UNL1        0.0180
      3 C         142.2294  139.7441  166.4799 C.3     1  UNL1        0.0310
      4 C         141.2698  139.8471  167.6282 C.3     1  UNL1        0.0939
      5 N         141.1405  141.2956  167.9957 N.am    1  UNL1       -0.2790
      6 C         140.2822  141.8538  169.0920 C.2     1  UNL1        0.2261
      7 C         139.4514  140.9336  169.9364 C.3     1  UNL1        0.0948
      8 O         140.2547  143.3323  169.3439 O.2     1  UNL1       -0.2749
      9 C         142.0202  142.0879  167.0746 C.3     1  UNL1        0.1020
     10 C         142.6931  141.1290  166.1378 C.3     1  UNL1        0.0902
     11 C         143.6527  141.0261  164.9895 C.3     1  UNL1        0.0261
     12 C         143.1569  142.5139  165.7957 C.2     1  UNL1        0.2267
     13 O         144.1332  143.2200  166.6891 O.2     1  UNL1       -0.2748
     14 N         142.6444  143.1927  164.5600 N.am    1  UNL1       -0.2750
     15 C         143.1081  144.5775  164.2179 C.3     1  UNL1        0.1000
     16 C         142.5956  145.2562  162.9824 C.3     1  UNL1        0.0670
     17 C         141.6194  144.5500  162.0889 C.ar    1  UNL1        0.0583
     18 N         141.1069  145.2288  160.8533 N.ar    1  UNL1       -0.2484
     19 C         140.1306  144.5227  159.9598 C.ar    1  UNL1        0.1023
     20 C         139.6668  143.1377  160.3020 C.ar    1  UNL1        0.0902
     21 C         140.1793  142.4591  161.5376 C.ar    1  UNL1        0.0040
     22 C         141.1556  143.1652  162.4310 C.ar    1  UNL1        0.0113
     23 C         141.6681  142.4865  163.6666 C.3     1  UNL1        0.1213
     24 C         138.6906  142.4316  159.4085 C.3     1  UNL1        0.4200
     25 F         137.7143  141.7255  158.5151 F       1  UNL1       -0.1658
     26 F         138.4370  141.4191  160.4859 F       1  UNL1       -0.1658
     27 F         138.9442  143.4441  158.3312 F       1  UNL1       -0.1658
     28 N         144.6403  139.0193  163.5256 N.3     1  UNL1       -0.2975
     29 H         145.4973  139.5723  163.5121 H       1  UNL1        0.1232
     30 C         144.2381  140.1975  161.2453 C.3     1  UNL1        0.1591
     31 C         143.7247  140.1599  159.8363 C.3     1  UNL1        0.1729
     32 O         143.1004  138.9065  159.2988 O.3     1  UNL1       -0.3511
     33 C         142.9893  137.6905  160.1702 C.3     1  UNL1        0.1437
     34 C         143.5026  137.7282  161.5792 C.3     1  UNL1        0.0503
     35 C         144.1270  138.9817  162.1167 C.3     1  UNL1        0.0865
     36 C         144.6517  142.7569  161.0754 C.3     1  UNL1        0.1742
     37 O         144.8624  141.4510  161.7828 O.3     1  UNL1       -0.3496
@<TRIPOS>BOND
     1    36    37    1
     2    37    30    1
     3    30    31    1
     4    31    32    1
     5    32    33    1
     6    33    34    1
     7    34    35    1
     8    35    28    1
     9     1    28    1
    10     1     2    1
    11     3     2    1
    12     3     4    1
    13     4     5    1
    14     5     6   am
    15     6     7    1
    16     6     8    2
    17     5     9    1
    18     9    10    1
    19    10    12    1
    20    12    13    2
    21    12    14   am
    22    14    15    1
    23    15    16    1
    24    16    17    1
    25    17    18   ar
    26    18    19   ar
    27    19    20   ar
    28    20    24    1
    29    24    25    1
    30    24    26    1
    31    24    27    1
    32    20    21   ar
    33    21    22   ar
    34    22    23    1
    35    10    11    1
    36    35    30    1
    37    11     1    1
    38    10     3    1
    39    23    14    1
    40    22    17   ar
    41    28    29    1
@<TRIPOS>MOLECULE
*****
 37 41 0 0 0
SMALL
GASTEIGER

@<TRIPOS>ATOM
      1 C         138.9306  142.9013  165.1662 C.3     1  UNL1        0.0546
      2 C         139.8302  143.6385  166.1134 C.3     1  UNL1        0.0180
      3 C         140.5587  142.6246  166.9447 C.3     1  UNL1        0.0310
      4 C         141.5649  142.4535  168.0439 C.3     1  UNL1        0.0939
      5 N         141.7374  140.9839  168.2899 N.am    1  UNL1       -0.2790
      6 C         142.6495  140.3609  169.3049 C.2     1  UNL1        0.2261
      7 C         143.4946  141.2306  170.1877 C.3     1  UNL1        0.0948
      8 O         142.7164  138.8683  169.4370 O.2     1  UNL1       -0.2749
      9 C         140.8379  140.2467  167.3427 C.3     1  UNL1        0.1020
     10 C         140.1093  141.2606  166.5113 C.3     1  UNL1        0.0902
     11 C         139.1031  141.4317  165.4122 C.3     1  UNL1        0.0261
     12 C         139.6600  139.8968  166.0779 C.2     1  UNL1        0.2267
     13 O         138.7465  139.0938  166.9560 O.2     1  UNL1       -0.2748
     14 N         140.1241  139.3357  164.7664 N.am    1  UNL1       -0.2750
     15 C         139.6747  137.9719  164.3330 C.3     1  UNL1        0.1000
     16 C         140.1388  137.4109  163.0216 C.3     1  UNL1        0.0670
     17 C         141.0523  138.2138  162.1436 C.ar    1  UNL1        0.0583
     18 N         141.5164  137.6528  160.8321 N.ar    1  UNL1       -0.2484
     19 C         142.4298  138.4557  159.9541 C.ar    1  UNL1        0.1023
     20 C         142.8792  139.8197  160.3875 C.ar    1  UNL1        0.0902
     21 C         142.4151  140.3806  161.6990 C.ar    1  UNL1        0.0040
     22 C         141.5016  139.5777  162.5770 C.ar    1  UNL1        0.0113
     23 C         141.0375  140.1387  163.8884 C.3     1  UNL1        0.1213
     24 C         143.7926  140.6226  159.5095 C.3     1  UNL1        0.4200
     25 F         144.7060  141.4255  158.6315 F       1  UNL1       -0.1658
     26 F         143.7470  139.5401  158.4722 F       1  UNL1       -0.1658
     27 F         143.8382  141.7051  160.5468 F       1  UNL1       -0.1658
     28 N         138.0185  143.5243  164.1512 N.3     1  UNL1       -0.2975
     29 H         137.1695  142.9592  164.1321 H       1  UNL1        0.1232
     30 C         138.1021  142.6366  161.7109 C.3     1  UNL1        0.1591
     31 C         138.5543  142.7871  160.2886 C.3     1  UNL1        0.1729
     32 O         139.3749  143.9758  159.8843 O.3     1  UNL1       -0.3511
     33 C         139.7435  145.0140  160.9023 C.3     1  UNL1        0.1437
     34 C         139.2914  144.8635  162.3246 C.3     1  UNL1        0.0503
     35 C         138.4706  143.6748  162.7289 C.3     1  UNL1        0.0865
     36 C         137.7727  140.0618  161.8197 C.3     1  UNL1        0.1742
     37 O         137.2814  141.4479  162.1153 O.3     1  UNL1       -0.3496
@<TRIPOS>BOND
     1    36    37    1
     2    37    30    1
     3    30    31    1
     4    31    32    1
     5    32    33    1
     6    33    34    1
     7    34    35    1
     8    35    28    1
     9     1    28    1
    10     1     2    1
    11     3     2    1
    12     3     4    1
    13     4     5    1
    14     5     6   am
    15     6     7    1
    16     6     8    2
    17     5     9    1
    18     9    10    1
    19    10    12    1
    20    12    13    2
    21    12    14   am
    22    14    15    1
    23    15    16    1
    24    16    17    1
    25    17    18   ar
    26    18    19   ar
    27    19    20   ar
    28    20    24    1
    29    24    25    1
    30    24    26    1
    31    24    27    1
    32    20    21   ar
    33    21    22   ar
    34    22    23    1
    35    10    11    1
    36    35    30    1
    37    11     1    1
    38    10     3    1
    39    23    14    1
    40    22    17   ar
    41    28    29    1
@<TRIPOS>MOLECULE
*****
 37 41 0 0 0
SMALL
GASTEIGER

@<TRIPOS>ATOM
      1 C         144.2636  141.8926  165.0404 C.3     1  UNL1        0.0546
      2 C         143.8654  142.9292  166.0489 C.3     1  UNL1        0.0180
      3 C         143.0089  142.2632  167.0847 C.3     1  UNL1        0.0310
      4 C         142.2334  142.4921  168.3481 C.3     1  UNL1        0.0939
      5 N         141.6231  141.1855  168.7606 N.am    1  UNL1       -0.2790
      6 C         140.7651  140.9558  169.9694 C.2     1  UNL1        0.2261
      7 C         140.4496  142.0950  170.8927 C.3     1  UNL1        0.0948
      8 O         140.2226  139.5867  170.2549 O.2     1  UNL1       -0.2749
      9 C         142.0213  140.1490  167.7522 C.3     1  UNL1        0.1020
     10 C         142.8778  140.8149  166.7164 C.3     1  UNL1        0.0902
     11 C         143.6532  140.5860  165.4530 C.3     1  UNL1        0.0261
     12 C         142.7467  139.3668  166.3481 C.2     1  UNL1        0.2267
     13 O         143.3813  138.3139  167.2075 O.2     1  UNL1       -0.2748
     14 N         141.9810  138.9715  165.1203 N.am    1  UNL1       -0.2750
     15 C         141.8499  137.5234  164.7520 C.3     1  UNL1        0.1000
     16 C         141.0842  137.1281  163.5242 C.3     1  UNL1        0.0670
     17 C         140.4496  138.1810  162.6648 C.ar    1  UNL1        0.0583
     18 N         139.6838  137.7857  161.4369 N.ar    1  UNL1       -0.2484
     19 C         139.0492  138.8386  160.5775 C.ar    1  UNL1        0.1023
     20 C         139.1803  140.2868  160.9458 C.ar    1  UNL1        0.0902
     21 C         139.9460  140.6820  162.1736 C.ar    1  UNL1        0.0040
     22 C         140.5806  139.6292  163.0331 C.ar    1  UNL1        0.0113
     23 C         141.3463  140.0244  164.2608 C.3     1  UNL1        0.1213
     24 C         138.5457  141.3397  160.0864 C.3     1  UNL1        0.4200
     25 F         137.9110  142.3926  159.2269 F       1  UNL1       -0.1658
     26 F         139.3049  142.4011  160.8260 F       1  UNL1       -0.1658
     27 F         137.7865  140.2783  159.3467 F       1  UNL1       -0.1658
     28 N         145.1216  142.1224  163.8316 N.3     1  UNL1       -0.2975
     29 H         145.4798  143.0748  163.9015 H       1  UNL1        0.1232
     30 C         144.0769  143.1950  161.7084 C.3     1  UNL1        0.1591
     31 C         143.4912  143.0522  160.3349 C.3     1  UNL1        0.1729
     32 O         143.3645  141.6940  159.7111 O.3     1  UNL1       -0.3511
     33 C         143.8235  140.4785  160.4607 C.3     1  UNL1        0.1437
     34 C         144.4092  140.6213  161.8343 C.3     1  UNL1        0.0503
     35 C         144.5359  141.9796  162.4581 C.3     1  UNL1        0.0865
     36 C         143.0975  145.0900  163.1916 C.3     1  UNL1        0.1742
     37 O         144.2036  144.5532  162.3323 O.3     1  UNL1       -0.3496
@<TRIPOS>BOND
     1    36    37    1
     2    37    30    1
     3    30    31    1
     4    31    32    1
     5    32    33    1
     6    33    34    1
     7    34    35    1
     8    35    28    1
     9     1    28    1
    10     1     2    1
    11     3     2    1
    12     3     4    1
    13     4     5    1
    14     5     6   am
    15     6     7    1
    16     6     8    2
    17     5     9    1
    18     9    10    1
    19    10    12    1
    20    12    13    2
    21    12    14   am
    22    14    15    1
    23    15    16    1
    24    16    17    1
    25    17    18   ar
    26    18    19   ar
    27    19    20   ar
    28    20    24    1
    29    24    25    1
    30    24    26    1
    31    24    27    1
    32    20    21   ar
    33    21    22   ar
    34    22    23    1
    35    10    11    1
    36    35    30    1
    37    11     1    1
    38    10     3    1
    39    23    14    1
    40    22    17   ar
    41    28    29    1
@<TRIPOS>MOLECULE
*****
 37 41 0 0 0
SMALL
GASTEIGER

@<TRIPOS>ATOM
      1 C         138.5307  140.3809  165.1619 C.3     1  UNL1        0.0546
      2 C         139.0778  139.4018  166.1579 C.3     1  UNL1        0.0180
      3 C         140.0664  140.1249  167.0238 C.3     1  UNL1        0.0310
      4 C         141.0155  139.9668  168.1745 C.3     1  UNL1        0.0939
      5 N         141.6660  141.2950  168.4248 N.am    1  UNL1       -0.2790
      6 C         142.6848  141.5920  169.4850 C.2     1  UNL1        0.2261
      7 C         143.1388  140.5056  170.4142 C.3     1  UNL1        0.0948
      8 O         143.2495  142.9755  169.6160 O.2     1  UNL1       -0.2749
      9 C         141.1189  142.2741  167.4288 C.3     1  UNL1        0.1020
     10 C         140.1303  141.5510  166.5629 C.3     1  UNL1        0.0902
     11 C         139.1812  141.7091  165.4122 C.3     1  UNL1        0.0261
     12 C         140.1942  142.9770  166.1020 C.2     1  UNL1        0.2267
     13 O         139.6521  144.0716  166.9726 O.2     1  UNL1       -0.2748
     14 N         140.8002  143.3084  164.7704 N.am    1  UNL1       -0.2750
     15 C         140.8641  144.7344  164.3095 C.3     1  UNL1        0.1000
     16 C         141.4701  145.0657  162.9780 C.3     1  UNL1        0.0670
     17 C         142.0123  143.9711  162.1075 C.ar    1  UNL1        0.0583
     18 N         142.6183  144.3026  160.7759 N.ar    1  UNL1       -0.2484
     19 C         143.1604  143.2079  159.9053 C.ar    1  UNL1        0.1023
     20 C         143.0965  141.7819  160.3663 C.ar    1  UNL1        0.0902
     21 C         142.4905  141.4505  161.6978 C.ar    1  UNL1        0.0040
     22 C         141.9484  142.5452  162.5684 C.ar    1  UNL1        0.0113
     23 C         141.3424  142.2138  163.8998 C.3     1  UNL1        0.1213
     24 C         143.6386  140.6873  159.4957 C.3     1  UNL1        0.4200
     25 F         144.1808  139.5927  158.6251 F       1  UNL1       -0.1658
     26 F         142.9885  141.3167  158.2994 F       1  UNL1       -0.1658
     27 F         144.2888  140.0579  160.6920 F       1  UNL1       -0.1658
     28 N         137.5120  140.0839  164.1016 N.3     1  UNL1       -0.2975
     29 H         136.9771  139.2777  164.4248 H       1  UNL1        0.1232
     30 C         137.8562  140.8289  161.6366 C.3     1  UNL1        0.1591
     31 C         138.2985  140.5221  160.2365 C.3     1  UNL1        0.1729
     32 O         138.8387  139.1635  159.9013 O.3     1  UNL1       -0.3511
     33 C         138.9368  138.1117  160.9663 C.3     1  UNL1        0.1437
     34 C         138.4945  138.4185  162.3664 C.3     1  UNL1        0.0503
     35 C         137.9542  139.7771  162.7015 C.3     1  UNL1        0.0865
     36 C         138.2513  143.3506  162.1214 C.3     1  UNL1        0.1742
     37 O         137.3160  142.1874  161.9718 O.3     1  UNL1       -0.3496
@<TRIPOS>BOND
     1    36    37    1
     2    37    30    1
     3    30    31    1
     4    31    32    1
     5    32    33    1
     6    33    34    1
     7    34    35    1
     8    35    28    1
     9     1    28    1
    10     1     2    1
    11     3     2    1
    12     3     4    1
    13     4     5    1
    14     5     6   am
    15     6     7    1
    16     6     8    2
    17     5     9    1
    18     9    10    1
    19    10    12    1
    20    12    13    2
    21    12    14   am
    22    14    15    1
    23    15    16    1
    24    16    17    1
    25    17    18   ar
    26    18    19   ar
    27    19    20   ar
    28    20    24    1
    29    24    25    1
    30    24    26    1
    31    24    27    1
    32    20    21   ar
    33    21    22   ar
    34    22    23    1
    35    10    11    1
    36    35    30    1
    37    11     1    1
    38    10     3    1
    39    23    14    1
    40    22    17   ar
    41    28    29    1
@<TRIPOS>MOLECULE
*****
 37 41 0 0 0
SMALL
GASTEIGER

@<TRIPOS>ATOM
      1 C         141.5823  143.9390  160.3076 C.3     1  UNL1        0.0546
      2 C         140.2702  144.4320  159.7735 C.3     1  UNL1        0.0180
      3 C         139.6550  143.3287  158.9647 C.3     1  UNL1        0.0310
      4 C         138.4638  142.9515  158.1347 C.3     1  UNL1        0.0939
      5 N         138.6596  141.5435  157.6559 N.am    1  UNL1       -0.2790
      6 C         137.7099  140.7651  156.7943 C.2     1  UNL1        0.2261
      7 C         136.4280  141.3934  156.3339 C.3     1  UNL1        0.0948
      8 O         138.0421  139.3585  156.3931 O.2     1  UNL1       -0.2749
      9 C         139.9717  141.0504  158.1900 C.3     1  UNL1        0.1020
     10 C         140.5869  142.1537  158.9989 C.3     1  UNL1        0.0902
     11 C         141.7780  142.5310  159.8289 C.3     1  UNL1        0.0261
     12 C         141.5188  140.9789  159.0331 C.2     1  UNL1        0.2267
     13 O         142.5174  140.7813  157.9313 O.2     1  UNL1       -0.2748
     14 N         141.4522  140.0015  160.1691 N.am    1  UNL1       -0.2750
     15 C         142.3841  138.8267  160.2033 C.3     1  UNL1        0.1000
     16 C         142.3174  137.8494  161.3392 C.3     1  UNL1        0.0670
     17 C         141.3189  138.0470  162.4410 C.ar    1  UNL1        0.0583
     18 N         141.2522  137.0696  163.5770 N.ar    1  UNL1       -0.2484
     19 C         140.2537  137.2672  164.6787 C.ar    1  UNL1        0.1023
     20 C         139.3217  138.4422  164.6445 C.ar    1  UNL1        0.0902
     21 C         139.3884  139.4194  163.5085 C.ar    1  UNL1        0.0040
     22 C         140.3870  139.2218  162.4068 C.ar    1  UNL1        0.0113
     23 C         140.4536  140.1991  161.2708 C.3     1  UNL1        0.1213
     24 C         138.3232  138.6397  165.7462 C.3     1  UNL1        0.4200
     25 F         137.3246  138.8373  166.8480 F       1  UNL1       -0.1658
     26 F         138.2721  137.1568  165.9659 F       1  UNL1       -0.1658
     27 F         138.3743  140.1227  165.5266 F       1  UNL1       -0.1658
     28 N         142.5320  144.7173  161.1692 N.3     1  UNL1       -0.2975
     29 H         143.2541  145.0877  160.5513 H       1  UNL1        0.1232
     30 C         142.7685  144.2513  163.7142 C.3     1  UNL1        0.1591
     31 C         143.4762  143.5750  164.8507 C.3     1  UNL1        0.1729
     32 O         144.6552  142.6884  164.5789 O.3     1  UNL1       -0.3511
     33 C         145.1265  142.4781  163.1704 C.3     1  UNL1        0.1437
     34 C         144.4187  143.1544  162.0339 C.3     1  UNL1        0.0503
     35 C         143.2397  144.0410  162.3058 C.3     1  UNL1        0.0865
     36 C         140.1980  144.5865  163.8880 C.3     1  UNL1        0.1742
     37 O         141.5896  145.1379  163.9860 O.3     1  UNL1       -0.3496
@<TRIPOS>BOND
     1    36    37    1
     2    37    30    1
     3    30    31    1
     4    31    32    1
     5    32    33    1
     6    33    34    1
     7    34    35    1
     8    35    28    1
     9     1    28    1
    10     1     2    1
    11     3     2    1
    12     3     4    1
    13     4     5    1
    14     5     6   am
    15     6     7    1
    16     6     8    2
    17     5     9    1
    18     9    10    1
    19    10    12    1
    20    12    13    2
    21    12    14   am
    22    14    15    1
    23    15    16    1
    24    16    17    1
    25    17    18   ar
    26    18    19   ar
    27    19    20   ar
    28    20    24    1
    29    24    25    1
    30    24    26    1
    31    24    27    1
    32    20    21   ar
    33    21    22   ar
    34    22    23    1
    35    10    11    1
    36    35    30    1
    37    11     1    1
    38    10     3    1
    39    23    14    1
    40    22    17   ar
    41    28    29    1
@<TRIPOS>MOLECULE
*****
 37 41 0 0 0
SMALL
GASTEIGER

@<TRIPOS>ATOM
      1 C         141.8571  138.1310  164.7008 C.3     1  UNL1        0.0546
      2 C         142.9043  138.4234  165.7342 C.3     1  UNL1        0.0180
      3 C         142.3027  139.3405  166.7573 C.3     1  UNL1        0.0310
      4 C         142.5780  140.0881  168.0282 C.3     1  UNL1        0.0939
      5 N         141.3291  140.8245  168.4127 N.am    1  UNL1       -0.2790
      6 C         141.1576  141.6998  169.6189 C.2     1  UNL1        0.2261
      7 C         142.3008  141.8997  170.5691 C.3     1  UNL1        0.0948
      8 O         139.8428  142.3750  169.8746 O.2     1  UNL1       -0.2749
      9 C         140.2819  140.5322  167.3794 C.3     1  UNL1        0.1020
     10 C         140.8835  139.6150  166.3563 C.3     1  UNL1        0.0902
     11 C         140.6082  138.8674  165.0854 C.3     1  UNL1        0.0261
     12 C         139.4644  139.8894  165.9553 C.2     1  UNL1        0.2267
     13 O         138.3351  139.4109  166.8189 O.2     1  UNL1       -0.2748
     14 N         139.1746  140.6424  164.6907 N.am    1  UNL1       -0.2750
     15 C         137.7555  140.9168  164.2897 C.3     1  UNL1        0.1000
     16 C         137.4657  141.6697  163.0252 C.3     1  UNL1        0.0670
     17 C         138.5951  142.1482  162.1616 C.ar    1  UNL1        0.0583
     18 N         138.3052  142.9011  160.8970 N.ar    1  UNL1       -0.2484
     19 C         139.4345  143.3796  160.0335 C.ar    1  UNL1        0.1023
     20 C         140.8537  143.1051  160.4345 C.ar    1  UNL1        0.0902
     21 C         141.1434  142.3522  161.6991 C.ar    1  UNL1        0.0040
     22 C         140.0141  141.8737  162.5626 C.ar    1  UNL1        0.0113
     23 C         140.3039  141.1208  163.8272 C.3     1  UNL1        0.1213
     24 C         141.9830  143.5836  159.5710 C.3     1  UNL1        0.4200
     25 F         143.1123  144.0621  158.7074 F       1  UNL1       -0.1658
     26 F         142.8376  143.7668  160.7900 F       1  UNL1       -0.1658
     27 F         141.1284  143.4004  158.3519 F       1  UNL1       -0.1658
     28 N         142.0286  137.2557  163.4947 N.3     1  UNL1       -0.2975
     29 H         142.8414  136.6656  163.6723 H       1  UNL1        0.1232
     30 C         141.0566  138.0733  161.2283 C.3     1  UNL1        0.1591
     31 C         141.2569  138.6907  159.8760 C.3     1  UNL1        0.1729
     32 O         142.6295  139.1080  159.4379 O.3     1  UNL1       -0.3511
     33 C         143.8018  138.9078  160.3520 C.3     1  UNL1        0.1437
     34 C         143.6015  138.2904  161.7043 C.3     1  UNL1        0.0503
     35 C         142.2289  137.8732  162.1424 C.3     1  UNL1        0.0865
     36 C         138.4995  138.5179  161.3438 C.3     1  UNL1        0.1742
     37 O         139.6841  137.6561  161.6664 O.3     1  UNL1       -0.3496
@<TRIPOS>BOND
     1    36    37    1
     2    37    30    1
     3    30    31    1
     4    31    32    1
     5    32    33    1
     6    33    34    1
     7    34    35    1
     8    35    28    1
     9     1    28    1
    10     1     2    1
    11     3     2    1
    12     3     4    1
    13     4     5    1
    14     5     6   am
    15     6     7    1
    16     6     8    2
    17     5     9    1
    18     9    10    1
    19    10    12    1
    20    12    13    2
    21    12    14   am
    22    14    15    1
    23    15    16    1
    24    16    17    1
    25    17    18   ar
    26    18    19   ar
    27    19    20   ar
    28    20    24    1
    29    24    25    1
    30    24    26    1
    31    24    27    1
    32    20    21   ar
    33    21    22   ar
    34    22    23    1
    35    10    11    1
    36    35    30    1
    37    11     1    1
    38    10     3    1
    39    23    14    1
    40    22    17   ar
    41    28    29    1
@<TRIPOS>MOLECULE
*****
 37 41 0 0 0
SMALL
GASTEIGER

@<TRIPOS>ATOM
      1 C         138.5234  141.7960  160.0211 C.3     1  UNL1        0.0546
      2 C         138.0158  140.8258  158.9959 C.3     1  UNL1        0.0180
      3 C         139.1642  139.9612  158.5673 C.3     1  UNL1        0.0310
      4 C         139.5603  138.8272  157.6689 C.3     1  UNL1        0.0939
      5 N         141.0224  138.5622  157.8739 N.am    1  UNL1       -0.2790
      6 C         141.8344  137.5115  157.1762 C.2     1  UNL1        0.2261
      7 C         141.1861  136.6086  156.1690 C.3     1  UNL1        0.0948
      8 O         143.2946  137.3636  157.4858 O.2     1  UNL1       -0.2749
      9 C         141.5300  139.5325  158.8991 C.3     1  UNL1        0.1020
     10 C         140.3816  140.3971  159.3276 C.3     1  UNL1        0.0902
     11 C         139.9856  141.5310  160.2261 C.3     1  UNL1        0.0261
     12 C         141.5989  140.8330  160.0879 C.2     1  UNL1        0.2267
     13 O         142.7665  141.4274  159.3575 O.2     1  UNL1       -0.2748
     14 N         141.6488  140.6745  161.5788 N.am    1  UNL1       -0.2750
     15 C         142.8661  141.1104  162.3390 C.3     1  UNL1        0.1000
     16 C         142.9159  140.9519  163.8298 C.3     1  UNL1        0.0670
     17 C         141.7484  140.3575  164.5602 C.ar    1  UNL1        0.0583
     18 N         141.7982  140.1990  166.0511 N.ar    1  UNL1       -0.2484
     19 C         140.6307  139.6045  166.7815 C.ar    1  UNL1        0.1023
     20 C         139.4133  139.1686  166.0211 C.ar    1  UNL1        0.0902
     21 C         139.3635  139.3271  164.5304 C.ar    1  UNL1        0.0040
     22 C         140.5310  139.9215  163.7999 C.ar    1  UNL1        0.0113
     23 C         140.4813  140.0801  162.3092 C.3     1  UNL1        0.1213
     24 C         138.2458  138.5742  166.7516 C.3     1  UNL1        0.4200
     25 F         137.0783  137.9798  167.4820 F       1  UNL1       -0.1658
     26 F         138.3867  139.6144  167.8232 F       1  UNL1       -0.1658
     27 F         138.1049  137.5341  165.6800 F       1  UNL1       -0.1658
     28 N         137.7115  142.8468  160.7187 N.3     1  UNL1       -0.2975
     29 H         137.7954  143.6994  160.1653 H       1  UNL1        0.1232
     30 C         138.8370  144.4466  162.4286 C.3     1  UNL1        0.1591
     31 C         139.1517  144.8185  163.8473 C.3     1  UNL1        0.1729
     32 O         138.6558  143.9625  164.9747 O.3     1  UNL1       -0.3511
     33 C         137.8450  142.7345  164.6836 C.3     1  UNL1        0.1437
     34 C         137.5302  142.3626  163.2649 C.3     1  UNL1        0.0503
     35 C         138.0263  143.2187  162.1374 C.3     1  UNL1        0.0865
     36 C         140.7702  145.2274  160.8785 C.3     1  UNL1        0.1742
     37 O         139.3329  145.3026  161.3012 O.3     1  UNL1       -0.3496
@<TRIPOS>BOND
     1    36    37    1
     2    37    30    1
     3    30    31    1
     4    31    32    1
     5    32    33    1
     6    33    34    1
     7    34    35    1
     8    35    28    1
     9     1    28    1
    10     1     2    1
    11     3     2    1
    12     3     4    1
    13     4     5    1
    14     5     6   am
    15     6     7    1
    16     6     8    2
    17     5     9    1
    18     9    10    1
    19    10    12    1
    20    12    13    2
    21    12    14   am
    22    14    15    1
    23    15    16    1
    24    16    17    1
    25    17    18   ar
    26    18    19   ar
    27    19    20   ar
    28    20    24    1
    29    24    25    1
    30    24    26    1
    31    24    27    1
    32    20    21   ar
    33    21    22   ar
    34    22    23    1
    35    10    11    1
    36    35    30    1
    37    11     1    1
    38    10     3    1
    39    23    14    1
    40    22    17   ar
    41    28    29    1
