@<TRIPOS>MOLECULE
*****
 25 27 0 0 0
SMALL
GASTEIGER

@<TRIPOS>ATOM
      1 C         142.9920  142.7909  164.9296 C.3     1  UNL1        0.0196
      2 C         142.1577  141.9615  163.9991 C.3     1  UNL1        0.0017
      3 C         141.8252  142.4758  162.6298 C.3     1  UNL1        0.0002
      4 C         142.3271  143.8196  162.1911 C.3     1  UNL1        0.0037
      5 C         143.1614  144.6490  163.1217 C.3     1  UNL1        0.0002
      6 C         143.4938  144.1347  164.4909 C.3     1  UNL1        0.0017
      7 C         143.3245  142.2766  166.2989 C.3     1  UNL1        0.0896
      8 O         144.1224  142.7659  169.1492 O.2     1  UNL1       -0.2704
      9 C         142.6816  142.5331  168.8031 C.2     1  UNL1        0.2454
     10 N         142.2826  142.2884  167.3780 N.am    1  UNL1       -0.3010
     11 H         141.3369  142.1357  167.1508 H       1  UNL1        0.1497
     12 C         141.6397  142.5450  169.8822 C.2     1  UNL1        0.0782
     13 C         140.3566  143.3216  169.8603 C.2     1  UNL1        0.1240
     14 N         139.6219  143.0389  171.1371 N.2     1  UNL1       -0.1509
     15 N         140.4509  142.0876  171.9481 N.2     1  UNL1       -0.1693
     16 C         141.6980  141.7823  171.1725 C.3     1  UNL1        0.1816
     17 C         141.9946  144.3339  160.8218 C.3     1  UNL1        0.0473
     18 C         140.7661  145.1686  160.6120 C.3     1  UNL1        0.2054
     19 O         140.0453  145.7519  161.7911 O.3     1  UNL1       -0.4755
     20 C         139.3194  144.8519  162.7467 C.ar    1  UNL1        0.1386
     21 C         139.5333  144.9981  164.2241 C.ar    1  UNL1        0.0369
     22 C         138.8074  144.0981  165.1797 C.ar    1  UNL1        0.0031
     23 C         137.8676  143.0519  164.6578 C.ar    1  UNL1        0.0002
     24 C         137.6538  142.9057  163.1803 C.ar    1  UNL1        0.0031
     25 C         138.3797  143.8057  162.2248 C.ar    1  UNL1        0.0369
@<TRIPOS>BOND
     1     8     9    2
     2     9    10   am
     3    10     7    1
     4     1     7    1
     5     1     2    1
     6     2     3    1
     7     3     4    1
     8     4    17    1
     9    17    18    1
    10    18    19    1
    11    19    20    1
    12    20    21   ar
    13    21    22   ar
    14    22    23   ar
    15    23    24   ar
    16    24    25   ar
    17     4     5    1
    18     5     6    1
    19     9    12    1
    20    12    13    2
    21    13    14    1
    22    14    15    2
    23    15    16    1
    24     6     1    1
    25    16    12    1
    26    25    20   ar
    27    10    11    1
@<TRIPOS>MOLECULE
*****
 25 27 0 0 0
SMALL
GASTEIGER

@<TRIPOS>ATOM
      1 C         142.9171  141.1487  165.2207 C.3     1  UNL1        0.0196
      2 C         142.4318  141.5594  163.8622 C.3     1  UNL1        0.0017
      3 C         142.2636  140.5311  162.7833 C.3     1  UNL1        0.0002
      4 C         142.5807  139.0919  163.0629 C.3     1  UNL1        0.0037
      5 C         143.0659  138.6811  164.4215 C.3     1  UNL1        0.0002
      6 C         143.2341  139.7095  165.5004 C.3     1  UNL1        0.0017
      7 C         143.0853  142.1771  166.2997 C.3     1  UNL1        0.0896
      8 O         143.9606  142.6432  169.1311 O.2     1  UNL1       -0.2704
      9 C         142.5007  142.5260  168.8070 C.2     1  UNL1        0.2454
     10 N         142.0631  142.2930  167.3913 N.am    1  UNL1       -0.3010
     11 H         141.1049  142.2161  167.1786 H       1  UNL1        0.1497
     12 C         141.4785  142.6419  169.8986 C.2     1  UNL1        0.0782
     13 C         141.4974  141.9066  171.2059 C.2     1  UNL1        0.1240
     14 N         140.2885  142.3237  171.9898 N.2     1  UNL1       -0.1509
     15 N         139.5224  143.3168  171.1670 N.2     1  UNL1       -0.1693
     16 C         140.2579  143.5135  169.8746 C.3     1  UNL1        0.1816
     17 C         142.4124  138.0634  161.9839 C.3     1  UNL1        0.0473
     18 C         141.1729  138.0584  161.1393 C.3     1  UNL1        0.2054
     19 O         139.8644  137.6237  161.7303 O.3     1  UNL1       -0.4755
     20 C         139.3336  138.3024  162.9581 C.ar    1  UNL1        0.1386
     21 C         139.4636  137.6392  164.2972 C.ar    1  UNL1        0.0369
     22 C         138.9328  138.3179  165.5250 C.ar    1  UNL1        0.0031
     23 C         138.2720  139.6600  165.4137 C.ar    1  UNL1        0.0002
     24 C         138.1420  140.3232  164.0746 C.ar    1  UNL1        0.0031
     25 C         138.6729  139.6444  162.8468 C.ar    1  UNL1        0.0369
@<TRIPOS>BOND
     1     8     9    2
     2     9    10   am
     3    10     7    1
     4     1     7    1
     5     1     2    1
     6     2     3    1
     7     3     4    1
     8     4    17    1
     9    17    18    1
    10    18    19    1
    11    19    20    1
    12    20    21   ar
    13    21    22   ar
    14    22    23   ar
    15    23    24   ar
    16    24    25   ar
    17     4     5    1
    18     5     6    1
    19     9    12    1
    20    12    13    2
    21    13    14    1
    22    14    15    2
    23    15    16    1
    24     6     1    1
    25    16    12    1
    26    25    20   ar
    27    10    11    1
@<TRIPOS>MOLECULE
*****
 25 27 0 0 0
SMALL
GASTEIGER

@<TRIPOS>ATOM
      1 C         138.4771  139.0284  165.8191 C.3     1  UNL1        0.0196
      2 C         138.8598  137.7260  165.1809 C.3     1  UNL1        0.0017
      3 C         138.8718  137.5982  163.6864 C.3     1  UNL1        0.0002
      4 C         138.5012  138.7726  162.8302 C.3     1  UNL1        0.0037
      5 C         138.1185  140.0750  163.4683 C.3     1  UNL1        0.0002
      6 C         138.1065  140.2029  164.9628 C.3     1  UNL1        0.0017
      7 C         138.4650  139.1564  167.3136 C.3     1  UNL1        0.0896
      8 O         138.0694  139.8511  170.2052 O.2     1  UNL1       -0.2704
      9 C         139.2100  140.4524  169.4386 C.2     1  UNL1        0.2454
     10 N         139.4077  140.1050  167.9928 N.am    1  UNL1       -0.3010
     11 H         140.1563  140.4997  167.4896 H       1  UNL1        0.1497
     12 C         140.1527  141.4010  170.1178 C.2     1  UNL1        0.0782
     13 C         141.0274  141.0836  171.2942 C.2     1  UNL1        0.1240
     14 N         141.8015  142.3200  171.6433 N.2     1  UNL1       -0.1509
     15 N         141.4052  143.4018  170.6826 N.2     1  UNL1       -0.1693
     16 C         140.3861  142.8338  169.7398 C.3     1  UNL1        0.1816
     17 C         138.5133  138.6447  161.3356 C.3     1  UNL1        0.0473
     18 C         139.7955  138.3405  160.6193 C.3     1  UNL1        0.2054
     19 O         140.9740  139.2565  160.7691 O.3     1  UNL1       -0.4755
     20 C         141.5802  139.4834  162.1222 C.ar    1  UNL1        0.1386
     21 C         142.2352  138.3475  162.8507 C.ar    1  UNL1        0.0369
     22 C         142.8414  138.5745  164.2038 C.ar    1  UNL1        0.0031
     23 C         142.7926  139.9374  164.8285 C.ar    1  UNL1        0.0002
     24 C         142.1376  141.0733  164.1000 C.ar    1  UNL1        0.0031
     25 C         141.5314  140.8463  162.7468 C.ar    1  UNL1        0.0369
@<TRIPOS>BOND
     1     8     9    2
     2     9    10   am
     3    10     7    1
     4     1     7    1
     5     1     2    1
     6     2     3    1
     7     3     4    1
     8     4    17    1
     9    17    18    1
    10    18    19    1
    11    19    20    1
    12    20    21   ar
    13    21    22   ar
    14    22    23   ar
    15    23    24   ar
    16    24    25   ar
    17     4     5    1
    18     5     6    1
    19     9    12    1
    20    12    13    2
    21    13    14    1
    22    14    15    2
    23    15    16    1
    24     6     1    1
    25    16    12    1
    26    25    20   ar
    27    10    11    1
@<TRIPOS>MOLECULE
*****
 25 27 0 0 0
SMALL
GASTEIGER

@<TRIPOS>ATOM
      1 C         139.6064  139.7182  164.9310 C.3     1  UNL1        0.0196
      2 C         140.5319  139.7329  163.7507 C.3     1  UNL1        0.0017
      3 C         140.0425  140.2222  162.4199 C.3     1  UNL1        0.0002
      4 C         138.6275  140.6968  162.2694 C.3     1  UNL1        0.0037
      5 C         137.7020  140.6821  163.4497 C.3     1  UNL1        0.0002
      6 C         138.1914  140.1928  164.7805 C.3     1  UNL1        0.0017
      7 C         140.0958  139.2289  166.2618 C.3     1  UNL1        0.0896
      8 O         138.7475  139.6147  168.9138 O.2     1  UNL1       -0.2704
      9 C         139.9866  140.3924  168.5823 C.2     1  UNL1        0.2454
     10 N         140.6607  140.1995  167.2562 N.am    1  UNL1       -0.3010
     11 H         141.4740  140.7099  167.0386 H       1  UNL1        0.1497
     12 C         140.5515  141.3629  169.5767 C.2     1  UNL1        0.0782
     13 C         140.8476  141.0755  171.0188 C.2     1  UNL1        0.1240
     14 N         141.3986  142.3262  171.6370 N.2     1  UNL1       -0.1509
     15 N         141.4429  143.3866  170.5770 N.2     1  UNL1       -0.1693
     16 C         140.9194  142.7912  169.3036 C.3     1  UNL1        0.1816
     17 C         138.1381  141.1861  160.9386 C.3     1  UNL1        0.0473
     18 C         138.7913  142.3693  160.2880 C.3     1  UNL1        0.2054
     19 O         138.6623  143.7305  160.9048 O.3     1  UNL1       -0.4755
     20 C         138.8623  143.9071  162.3809 C.ar    1  UNL1        0.1386
     21 C         140.2411  143.8259  162.9659 C.ar    1  UNL1        0.0369
     22 C         140.4411  144.0025  164.4420 C.ar    1  UNL1        0.0031
     23 C         139.2623  144.2602  165.3331 C.ar    1  UNL1        0.0002
     24 C         137.8834  144.3414  164.7480 C.ar    1  UNL1        0.0031
     25 C         137.6835  144.1648  163.2719 C.ar    1  UNL1        0.0369
@<TRIPOS>BOND
     1     8     9    2
     2     9    10   am
     3    10     7    1
     4     1     7    1
     5     1     2    1
     6     2     3    1
     7     3     4    1
     8     4    17    1
     9    17    18    1
    10    18    19    1
    11    19    20    1
    12    20    21   ar
    13    21    22   ar
    14    22    23   ar
    15    23    24   ar
    16    24    25   ar
    17     4     5    1
    18     5     6    1
    19     9    12    1
    20    12    13    2
    21    13    14    1
    22    14    15    2
    23    15    16    1
    24     6     1    1
    25    16    12    1
    26    25    20   ar
    27    10    11    1
@<TRIPOS>MOLECULE
*****
 25 27 0 0 0
SMALL
GASTEIGER

@<TRIPOS>ATOM
      1 C         141.2481  139.2992  165.4418 C.3     1  UNL1        0.0196
      2 C         141.5915  139.7675  164.0588 C.3     1  UNL1        0.0017
      3 C         140.5485  139.7512  162.9809 C.3     1  UNL1        0.0002
      4 C         139.1621  139.2665  163.2860 C.3     1  UNL1        0.0037
      5 C         138.8188  138.7981  164.6690 C.3     1  UNL1        0.0002
      6 C         139.8617  138.8145  165.7469 C.3     1  UNL1        0.0017
      7 C         142.2911  139.3155  166.5197 C.3     1  UNL1        0.0896
      8 O         141.7475  142.2140  167.0706 O.2     1  UNL1       -0.2704
      9 C         141.6583  141.2099  168.1814 C.2     1  UNL1        0.2454
     10 N         141.9302  139.7606  167.9059 N.am    1  UNL1       -0.3010
     11 H         141.8717  139.1016  168.6349 H       1  UNL1        0.1497
     12 C         141.2974  141.6550  169.5675 C.2     1  UNL1        0.0782
     13 C         142.1778  141.5678  170.7788 C.2     1  UNL1        0.1240
     14 N         141.4172  142.1244  171.9457 N.2     1  UNL1       -0.1509
     15 N         140.0666  142.5555  171.4557 N.2     1  UNL1       -0.1693
     16 C         139.9926  142.2653  169.9859 C.3     1  UNL1        0.1816
     17 C         138.1191  139.2501  162.2081 C.3     1  UNL1        0.0473
     18 C         137.5633  140.5405  161.6826 C.3     1  UNL1        0.2054
     19 O         136.9412  141.5281  162.6248 O.3     1  UNL1       -0.4755
     20 C         137.7795  142.6101  163.2382 C.ar    1  UNL1        0.1386
     21 C         138.1142  143.8394  162.4464 C.ar    1  UNL1        0.0369
     22 C         138.9525  144.9214  163.0599 C.ar    1  UNL1        0.0031
     23 C         139.4562  144.7743  164.4651 C.ar    1  UNL1        0.0002
     24 C         139.1215  143.5450  165.2569 C.ar    1  UNL1        0.0031
     25 C         138.2831  142.4629  164.6434 C.ar    1  UNL1        0.0369
@<TRIPOS>BOND
     1     8     9    2
     2     9    10   am
     3    10     7    1
     4     1     7    1
     5     1     2    1
     6     2     3    1
     7     3     4    1
     8     4    17    1
     9    17    18    1
    10    18    19    1
    11    19    20    1
    12    20    21   ar
    13    21    22   ar
    14    22    23   ar
    15    23    24   ar
    16    24    25   ar
    17     4     5    1
    18     5     6    1
    19     9    12    1
    20    12    13    2
    21    13    14    1
    22    14    15    2
    23    15    16    1
    24     6     1    1
    25    16    12    1
    26    25    20   ar
    27    10    11    1
@<TRIPOS>MOLECULE
*****
 25 27 0 0 0
SMALL
GASTEIGER

@<TRIPOS>ATOM
      1 C         142.7659  140.2469  164.7054 C.3     1  UNL1        0.0196
      2 C         142.8288  138.7576  164.5385 C.3     1  UNL1        0.0017
      3 C         142.2903  138.1191  163.2926 C.3     1  UNL1        0.0002
      4 C         141.6889  138.9701  162.2136 C.3     1  UNL1        0.0037
      5 C         141.6261  140.4594  162.3805 C.3     1  UNL1        0.0002
      6 C         142.1645  141.0978  163.6264 C.3     1  UNL1        0.0017
      7 C         143.3044  140.8854  165.9514 C.3     1  UNL1        0.0896
      8 O         143.1285  138.8571  168.1549 O.2     1  UNL1       -0.2704
      9 C         142.3104  140.1125  168.2240 C.2     1  UNL1        0.2454
     10 N         142.3984  141.1266  167.1223 N.am    1  UNL1       -0.3010
     11 H         141.8615  141.9506  167.1676 H       1  UNL1        0.1497
     12 C         141.4044  140.3538  169.3949 C.2     1  UNL1        0.0782
     13 C         139.9107  140.2169  169.3967 C.2     1  UNL1        0.1240
     14 N         139.4162  140.5528  170.7724 N.2     1  UNL1       -0.1509
     15 N         140.6043  140.8973  171.6209 N.2     1  UNL1       -0.1693
     16 C         141.8331  140.7743  170.7695 C.3     1  UNL1        0.1816
     17 C         141.1504  138.3316  160.9676 C.3     1  UNL1        0.0473
     18 C         139.6843  138.4069  160.6597 C.3     1  UNL1        0.2054
     19 O         138.6832  137.8769  161.6430 O.3     1  UNL1       -0.4755
     20 C         138.5827  138.4829  163.0114 C.ar    1  UNL1        0.1386
     21 C         138.1854  139.9209  163.1675 C.ar    1  UNL1        0.0369
     22 C         138.0849  140.5269  164.5359 C.ar    1  UNL1        0.0031
     23 C         138.3816  139.6949  165.7483 C.ar    1  UNL1        0.0002
     24 C         138.7789  138.2569  165.5922 C.ar    1  UNL1        0.0031
     25 C         138.8794  137.6509  164.2237 C.ar    1  UNL1        0.0369
@<TRIPOS>BOND
     1     8     9    2
     2     9    10   am
     3    10     7    1
     4     1     7    1
     5     1     2    1
     6     2     3    1
     7     3     4    1
     8     4    17    1
     9    17    18    1
    10    18    19    1
    11    19    20    1
    12    20    21   ar
    13    21    22   ar
    14    22    23   ar
    15    23    24   ar
    16    24    25   ar
    17     4     5    1
    18     5     6    1
    19     9    12    1
    20    12    13    2
    21    13    14    1
    22    14    15    2
    23    15    16    1
    24     6     1    1
    25    16    12    1
    26    25    20   ar
    27    10    11    1
@<TRIPOS>MOLECULE
*****
 25 27 0 0 0
SMALL
GASTEIGER

@<TRIPOS>ATOM
      1 C         142.8467  142.0421  164.9352 C.3     1  UNL1        0.0196
      2 C         143.2227  143.4930  164.9942 C.3     1  UNL1        0.0017
      3 C         142.7146  144.4425  163.9501 C.3     1  UNL1        0.0002
      4 C         141.8305  143.9412  162.8470 C.3     1  UNL1        0.0037
      5 C         141.4545  142.4903  162.7879 C.3     1  UNL1        0.0002
      6 C         141.9626  141.5408  163.8320 C.3     1  UNL1        0.0017
      7 C         143.3548  141.0925  165.9793 C.3     1  UNL1        0.0896
      8 O         143.4522  142.6228  168.5578 O.2     1  UNL1       -0.2704
      9 C         142.5193  141.4572  168.4122 C.2     1  UNL1        0.2454
     10 N         142.4706  140.6921  167.1229 N.am    1  UNL1       -0.3010
     11 H         141.8583  139.9271  167.0273 H       1  UNL1        0.1497
     12 C         141.6351  141.0568  169.5558 C.2     1  UNL1        0.0782
     13 C         141.6567  141.6458  170.9351 C.2     1  UNL1        0.1240
     14 N         140.6090  140.9501  171.7527 N.2     1  UNL1       -0.1509
     15 N         139.9399  139.9311  170.8786 N.2     1  UNL1       -0.1693
     16 C         140.5741  139.9971  169.5208 C.3     1  UNL1        0.1816
     17 C         141.3224  144.8908  161.8028 C.3     1  UNL1        0.0473
     18 C         140.1821  145.8126  162.1187 C.3     1  UNL1        0.2054
     19 O         138.7683  145.3280  161.9909 O.3     1  UNL1       -0.4755
     20 C         138.3809  143.9900  162.5475 C.ar    1  UNL1        0.1386
     21 C         138.0934  142.8466  161.6201 C.ar    1  UNL1        0.0369
     22 C         137.7060  141.5087  162.1767 C.ar    1  UNL1        0.0031
     23 C         137.6061  141.3141  163.6607 C.ar    1  UNL1        0.0002
     24 C         137.8936  142.4575  164.5881 C.ar    1  UNL1        0.0031
     25 C         138.2810  143.7955  164.0314 C.ar    1  UNL1        0.0369
@<TRIPOS>BOND
     1     8     9    2
     2     9    10   am
     3    10     7    1
     4     1     7    1
     5     1     2    1
     6     2     3    1
     7     3     4    1
     8     4    17    1
     9    17    18    1
    10    18    19    1
    11    19    20    1
    12    20    21   ar
    13    21    22   ar
    14    22    23   ar
    15    23    24   ar
    16    24    25   ar
    17     4     5    1
    18     5     6    1
    19     9    12    1
    20    12    13    2
    21    13    14    1
    22    14    15    2
    23    15    16    1
    24     6     1    1
    25    16    12    1
    26    25    20   ar
    27    10    11    1
@<TRIPOS>MOLECULE
*****
 25 27 0 0 0
SMALL
GASTEIGER

@<TRIPOS>ATOM
      1 C         142.1090  142.2828  164.9499 C.3     1  UNL1        0.0196
      2 C         141.1065  143.3698  165.2013 C.3     1  UNL1        0.0017
      3 C         140.0947  143.7148  164.1491 C.3     1  UNL1        0.0002
      4 C         140.0853  142.9727  162.8456 C.3     1  UNL1        0.0037
      5 C         141.0878  141.8856  162.5942 C.3     1  UNL1        0.0002
      6 C         142.0996  141.5406  163.6464 C.3     1  UNL1        0.0017
      7 C         143.1209  141.9377  166.0021 C.3     1  UNL1        0.0896
      8 O         141.4480  139.9074  167.4440 O.2     1  UNL1       -0.2704
      9 C         141.9543  141.1163  168.1734 C.2     1  UNL1        0.2454
     10 N         142.7908  142.1315  167.4524 N.am    1  UNL1       -0.3010
     11 H         143.1231  142.9250  167.9311 H       1  UNL1        0.1497
     12 C         141.6241  141.3101  169.6237 C.2     1  UNL1        0.0782
     13 C         140.6796  140.4713  170.4326 C.2     1  UNL1        0.1240
     14 N         140.6522  141.0195  171.8286 N.2     1  UNL1       -0.1509
     15 N         141.5798  142.1972  171.8824 N.2     1  UNL1       -0.1693
     16 C         142.1804  142.3768  170.5197 C.3     1  UNL1        0.1816
     17 C         139.0734  143.3177  161.7934 C.3     1  UNL1        0.0473
     18 C         138.0934  142.2822  161.3271 C.3     1  UNL1        0.2054
     19 O         137.2301  141.5647  162.3221 O.3     1  UNL1       -0.4755
     20 C         137.8065  140.4588  163.1555 C.ar    1  UNL1        0.1386
     21 C         137.9681  140.6412  164.6356 C.ar    1  UNL1        0.0369
     22 C         138.5446  139.5353  165.4690 C.ar    1  UNL1        0.0031
     23 C         138.9595  138.2469  164.8223 C.ar    1  UNL1        0.0002
     24 C         138.7979  138.0646  163.3422 C.ar    1  UNL1        0.0031
     25 C         138.2214  139.1706  162.5088 C.ar    1  UNL1        0.0369
@<TRIPOS>BOND
     1     8     9    2
     2     9    10   am
     3    10     7    1
     4     1     7    1
     5     1     2    1
     6     2     3    1
     7     3     4    1
     8     4    17    1
     9    17    18    1
    10    18    19    1
    11    19    20    1
    12    20    21   ar
    13    21    22   ar
    14    22    23   ar
    15    23    24   ar
    16    24    25   ar
    17     4     5    1
    18     5     6    1
    19     9    12    1
    20    12    13    2
    21    13    14    1
    22    14    15    2
    23    15    16    1
    24     6     1    1
    25    16    12    1
    26    25    20   ar
    27    10    11    1
@<TRIPOS>MOLECULE
*****
 25 27 0 0 0
SMALL
GASTEIGER

@<TRIPOS>ATOM
      1 C         140.0670  139.5503  165.2425 C.3     1  UNL1        0.0196
      2 C         140.1310  140.4784  164.0658 C.3     1  UNL1        0.0017
      3 C         141.2650  140.3745  163.0895 C.3     1  UNL1        0.0002
      4 C         142.3350  139.3425  163.2899 C.3     1  UNL1        0.0037
      5 C         142.2710  138.4144  164.4666 C.3     1  UNL1        0.0002
      6 C         141.1370  138.5184  165.4428 C.3     1  UNL1        0.0017
      7 C         138.9329  139.6543  166.2188 C.3     1  UNL1        0.0896
      8 O         140.2150  142.1854  167.1933 O.2     1  UNL1       -0.2704
      9 C         139.8571  141.1027  168.1677 C.2     1  UNL1        0.2454
     10 N         139.2160  139.8371  167.6804 N.am    1  UNL1       -0.3010
     11 H         138.9811  139.1264  168.3200 H       1  UNL1        0.1497
     12 C         140.1402  141.2855  169.6293 C.2     1  UNL1        0.0782
     13 C         140.0224  142.5691  170.3964 C.2     1  UNL1        0.1240
     14 N         140.4002  142.2938  171.8216 N.2     1  UNL1       -0.1509
     15 N         140.7514  140.8399  171.9355 N.2     1  UNL1       -0.1693
     16 C         140.5907  140.2168  170.5806 C.3     1  UNL1        0.1816
     17 C         143.4691  139.2386  162.3135 C.3     1  UNL1        0.0473
     18 C         144.8058  139.8296  162.6509 C.3     1  UNL1        0.2054
     19 O         145.1615  141.2044  162.1676 O.3     1  UNL1       -0.4755
     20 C         144.7513  142.4084  162.9626 C.ar    1  UNL1        0.1386
     21 C         144.2569  143.6381  162.2602 C.ar    1  UNL1        0.0369
     22 C         143.8467  144.8421  163.0552 C.ar    1  UNL1        0.0031
     23 C         143.9308  144.8164  164.5527 C.ar    1  UNL1        0.0002
     24 C         144.4251  143.5866  165.2551 C.ar    1  UNL1        0.0031
     25 C         144.8354  142.3826  164.4600 C.ar    1  UNL1        0.0369
@<TRIPOS>BOND
     1     8     9    2
     2     9    10   am
     3    10     7    1
     4     1     7    1
     5     1     2    1
     6     2     3    1
     7     3     4    1
     8     4    17    1
     9    17    18    1
    10    18    19    1
    11    19    20    1
    12    20    21   ar
    13    21    22   ar
    14    22    23   ar
    15    23    24   ar
    16    24    25   ar
    17     4     5    1
    18     5     6    1
    19     9    12    1
    20    12    13    2
    21    13    14    1
    22    14    15    2
    23    15    16    1
    24     6     1    1
    25    16    12    1
    26    25    20   ar
    27    10    11    1
