@<TRIPOS>MOLECULE
*****
 42 46 0 0 0
SMALL
GASTEIGER

@<TRIPOS>ATOM
      1 C         140.9665  141.6907  165.7167 C.3     1  UNL1        0.0764
      2 C         140.8619  142.6085  164.5349 C.ar    1  UNL1        0.0181
      3 C         141.5698  142.2692  163.2567 C.ar    1  UNL1       -0.0009
      4 C         141.4651  143.1871  162.0749 C.ar    1  UNL1        0.0004
      5 C         142.1730  142.8478  160.7968 C.ar    1  UNL1        0.0067
      6 C         142.0683  143.7657  159.6150 C.ar    1  UNL1        0.0346
      7 BR        142.7762  143.4264  158.3368 Br      1  UNL1       -0.0490
      8 C         141.2557  145.0228  159.7114 C.ar    1  UNL1        0.0067
      9 C         140.5478  145.3621  160.9896 C.ar    1  UNL1        0.0006
     10 C         140.6525  144.4442  162.1713 C.ar    1  UNL1        0.0030
     11 C         139.9445  144.7835  163.4496 C.ar    1  UNL1        0.0366
     12 C         140.0492  143.8657  164.6313 C.ar    1  UNL1        0.1351
     13 O         139.3413  144.2049  165.9095 O.3     1  UNL1       -0.4717
     14 C         138.1765  145.1499  165.8937 C.3     1  UNL1        0.2525
     15 C         138.8613  138.4490  164.8173 C.ar    1  UNL1        0.2271
     16 C         139.8004  139.6110  164.6847 C.ar    1  UNL1        0.0540
     17 C         140.0274  140.5286  165.8494 C.ar    1  UNL1       -0.0064
     18 C         139.3153  140.2842  167.1467 C.ar    1  UNL1        0.0540
     19 C         138.3761  139.1221  167.2793 C.ar    1  UNL1        0.2272
     20 N         138.1491  138.2045  166.1147 N.ar    1  UNL1       -0.1767
     21 O         137.6639  138.8776  168.5767 O.3     1  UNL1       -0.4561
     22 C         138.0417  139.6610  169.7987 C.3     1  UNL1        0.2542
     23 O         138.6343  137.5314  163.6526 O.3     1  UNL1       -0.4602
     24 C         139.3643  138.1373  161.2339 C.3     1  UNL1        0.0512
     25 C         138.3119  138.0992  162.3021 C.3     1  UNL1        0.2072
     26 C         142.0104  141.9349  166.7659 C.3     1  UNL1        0.1186
     27 O         141.0722  142.8589  167.4842 O.3     1  UNL1       -0.3819
     28 H         141.1336  142.7034  168.4397 H       1  UNL1        0.2107
     29 C         142.9486  141.0110  166.0475 C.ar    1  UNL1        0.0369
     30 C         142.8961  139.5353  166.3109 C.ar    1  UNL1        0.0010
     31 C         143.8343  138.6113  165.5926 C.ar    1  UNL1       -0.0000
     32 C         144.8251  139.1631  164.6108 C.ar    1  UNL1        0.0031
     33 C         144.8776  140.6388  164.3474 C.ar    1  UNL1        0.0375
     34 C         145.7404  141.4666  163.4417 C.ar    1  UNL1        0.0437
     35 C         145.3354  142.9022  163.6003 C.ar    1  UNL1        0.1796
     36 O         144.2223  142.9616  164.6040 O.2     1  UNL1       -0.4507
     37 C         143.9394  141.5628  165.0658 C.ar    1  UNL1        0.1436
     38 C         143.0542  142.1792  167.8150 C.3     1  UNL1        0.0492
     39 C         142.6432  142.5120  169.2188 C.3     1  UNL1        0.0750
     40 N         142.0472  141.4521  170.0970 N.3     1  UNL1       -0.2702
     41 C         142.5176  140.0323  169.9836 C.3     1  UNL1        0.0897
     42 C         140.9808  141.8120  171.0887 C.3     1  UNL1        0.0897
@<TRIPOS>BOND
     1    24    25    1
     2    25    23    1
     3    23    15    1
     4    15    16   ar
     5    16    17   ar
     6     1    17    1
     7     1     2    1
     8     2     3   ar
     9     3     4   ar
    10     4     5   ar
    11     5     6   ar
    12     6     7    1
    13     6     8   ar
    14     8     9   ar
    15     9    10   ar
    16    10    11   ar
    17    11    12   ar
    18    12    13    1
    19    13    14    1
    20     1    26    1
    21    26    27    1
    22    26    38    1
    23    38    39    1
    24    39    40    1
    25    40    41    1
    26    40    42    1
    27    26    29    1
    28    29    30   ar
    29    30    31   ar
    30    31    32   ar
    31    32    33   ar
    32    33    34   ar
    33    34    35   ar
    34    35    36   ar
    35    36    37   ar
    36    17    18   ar
    37    18    19   ar
    38    19    21    1
    39    21    22    1
    40    19    20   ar
    41    20    15   ar
    42    12     2   ar
    43    37    29   ar
    44    10     4   ar
    45    37    33   ar
    46    27    28    1
@<TRIPOS>MOLECULE
*****
 42 46 0 0 0
SMALL
GASTEIGER

@<TRIPOS>ATOM
      1 C         140.0926  140.1606  164.2115 C.3     1  UNL1        0.0764
      2 C         140.0208  140.3177  165.7016 C.ar    1  UNL1        0.0181
      3 C         140.9756  141.2354  166.4059 C.ar    1  UNL1       -0.0009
      4 C         140.9038  141.3925  167.8959 C.ar    1  UNL1        0.0004
      5 C         141.8586  142.3102  168.6002 C.ar    1  UNL1        0.0067
      6 C         141.7867  142.4673  170.0902 C.ar    1  UNL1        0.0346
      7 BR        142.7416  143.3850  170.7946 Br      1  UNL1       -0.0490
      8 C         140.7600  141.7066  170.8759 C.ar    1  UNL1        0.0067
      9 C         139.8052  140.7889  170.1716 C.ar    1  UNL1        0.0006
     10 C         139.8771  140.6318  168.6816 C.ar    1  UNL1        0.0030
     11 C         138.9222  139.7141  167.9773 C.ar    1  UNL1        0.0366
     12 C         138.9941  139.5570  166.4873 C.ar    1  UNL1        0.1351
     13 O         138.0393  138.6393  165.7829 O.3     1  UNL1       -0.4717
     14 C         138.1071  137.1599  166.0213 C.3     1  UNL1        0.2525
     15 C         143.9389  139.5240  163.4696 C.ar    1  UNL1        0.2271
     16 C         142.6861  140.0446  164.1094 C.ar    1  UNL1        0.0540
     17 C         141.3455  139.6399  163.5718 C.ar    1  UNL1       -0.0064
     18 C         141.2577  138.7146  162.3945 C.ar    1  UNL1        0.0540
     19 C         142.5106  138.1940  161.7547 C.ar    1  UNL1        0.2272
     20 N         143.8512  138.5986  162.2923 N.ar    1  UNL1       -0.1767
     21 O         142.4228  137.2687  160.5774 O.3     1  UNL1       -0.4561
     22 C         142.7086  137.7819  159.1972 C.3     1  UNL1        0.2542
     23 O         145.2796  139.9286  164.0072 O.3     1  UNL1       -0.4602
     24 C         145.3555  142.1448  162.6534 C.3     1  UNL1        0.0512
     25 C         145.7504  141.3452  163.8595 C.3     1  UNL1        0.2072
     26 C         138.9116  140.5241  163.3612 C.3     1  UNL1        0.1186
     27 O         138.6651  139.0710  163.0824 O.3     1  UNL1       -0.3819
     28 H         137.7125  138.8918  163.1192 H       1  UNL1        0.2107
     29 C         139.1581  141.9772  163.6401 C.ar    1  UNL1        0.0369
     30 C         138.3392  142.6920  164.6737 C.ar    1  UNL1        0.0010
     31 C         138.5857  144.1451  164.9525 C.ar    1  UNL1       -0.0000
     32 C         139.6512  144.8834  164.1978 C.ar    1  UNL1        0.0031
     33 C         140.4701  144.1686  163.1642 C.ar    1  UNL1        0.0375
     34 C         141.5810  144.6305  162.2683 C.ar    1  UNL1        0.0437
     35 C         142.0211  143.4629  161.4358 C.ar    1  UNL1        0.1796
     36 O         141.1821  142.2793  161.8171 O.2     1  UNL1       -0.4507
     37 C         140.2236  142.7155  162.8853 C.ar    1  UNL1        0.1436
     38 C         137.7305  140.8876  162.5110 C.3     1  UNL1        0.0492
     39 C         137.5007  140.1840  161.2063 C.3     1  UNL1        0.0750
     40 N         138.4291  140.4216  160.0523 N.3     1  UNL1       -0.2702
     41 C         139.1670  139.2713  159.4342 C.3     1  UNL1        0.0897
     42 C         138.6195  141.8097  159.5164 C.3     1  UNL1        0.0897
@<TRIPOS>BOND
     1    24    25    1
     2    25    23    1
     3    23    15    1
     4    15    16   ar
     5    16    17   ar
     6     1    17    1
     7     1     2    1
     8     2     3   ar
     9     3     4   ar
    10     4     5   ar
    11     5     6   ar
    12     6     7    1
    13     6     8   ar
    14     8     9   ar
    15     9    10   ar
    16    10    11   ar
    17    11    12   ar
    18    12    13    1
    19    13    14    1
    20     1    26    1
    21    26    27    1
    22    26    38    1
    23    38    39    1
    24    39    40    1
    25    40    41    1
    26    40    42    1
    27    26    29    1
    28    29    30   ar
    29    30    31   ar
    30    31    32   ar
    31    32    33   ar
    32    33    34   ar
    33    34    35   ar
    34    35    36   ar
    35    36    37   ar
    36    17    18   ar
    37    18    19   ar
    38    19    21    1
    39    21    22    1
    40    19    20   ar
    41    20    15   ar
    42    12     2   ar
    43    37    29   ar
    44    10     4   ar
    45    37    33   ar
    46    27    28    1
@<TRIPOS>MOLECULE
*****
 42 46 0 0 0
SMALL
GASTEIGER

@<TRIPOS>ATOM
      1 C         142.0344  141.9588  162.7980 C.3     1  UNL1        0.0764
      2 C         142.3292  142.0954  164.2624 C.ar    1  UNL1        0.0181
      3 C         141.2634  141.7925  165.2735 C.ar    1  UNL1       -0.0009
      4 C         141.5582  141.9291  166.7379 C.ar    1  UNL1        0.0004
      5 C         140.4924  141.6262  167.7490 C.ar    1  UNL1        0.0067
      6 C         140.7873  141.7628  169.2133 C.ar    1  UNL1        0.0346
      7 BR        139.7214  141.4599  170.2244 Br      1  UNL1       -0.0490
      8 C         142.1479  142.2021  169.6666 C.ar    1  UNL1        0.0067
      9 C         143.2138  142.5050  168.6556 C.ar    1  UNL1        0.0006
     10 C         142.9189  142.3685  167.1912 C.ar    1  UNL1        0.0030
     11 C         143.9847  142.6713  166.1801 C.ar    1  UNL1        0.0366
     12 C         143.6899  142.5348  164.7157 C.ar    1  UNL1        0.1351
     13 O         144.7557  142.8376  163.7046 O.3     1  UNL1       -0.4717
     14 C         145.7446  141.7784  163.3171 C.3     1  UNL1        0.2525
     15 C         141.7631  138.0609  162.1039 C.ar    1  UNL1        0.2271
     16 C         141.6208  139.3940  162.7765 C.ar    1  UNL1        0.0540
     17 C         142.1767  140.6257  162.1254 C.ar    1  UNL1       -0.0064
     18 C         142.8749  140.5242  160.8017 C.ar    1  UNL1        0.0540
     19 C         143.0173  139.1910  160.1291 C.ar    1  UNL1        0.2272
     20 N         142.4613  137.9594  160.7801 N.ar    1  UNL1       -0.1767
     21 O         143.7155  139.0896  158.8054 O.3     1  UNL1       -0.4561
     22 C         143.8386  140.2997  157.9278 C.3     1  UNL1        0.2542
     23 O         141.2071  136.8292  162.7550 O.3     1  UNL1       -0.4602
     24 C         139.6696  137.4062  164.7682 C.3     1  UNL1        0.0512
     25 C         140.9399  136.8166  164.2310 C.3     1  UNL1        0.2072
     26 C         141.5972  143.1555  162.0062 C.3     1  UNL1        0.1186
     27 O         143.0291  143.4655  161.6842 O.3     1  UNL1       -0.3819
     28 H         143.1003  143.7366  160.7556 H       1  UNL1        0.2107
     29 C         140.1654  142.8455  162.3283 C.ar    1  UNL1        0.0369
     30 C         139.4273  141.8055  161.5387 C.ar    1  UNL1        0.0010
     31 C         137.9954  141.4955  161.8608 C.ar    1  UNL1       -0.0000
     32 C         137.3017  142.2256  162.9724 C.ar    1  UNL1        0.0031
     33 C         138.0398  143.2657  163.7619 C.ar    1  UNL1        0.0375
     34 C         137.6218  144.1419  164.9053 C.ar    1  UNL1        0.0437
     35 C         138.7952  144.9934  165.2900 C.ar    1  UNL1        0.1796
     36 O         139.9386  144.6434  164.3842 O.2     1  UNL1       -0.4507
     37 C         139.4717  143.5756  163.4398 C.ar    1  UNL1        0.1436
     38 C         141.1601  144.3522  161.2144 C.3     1  UNL1        0.0492
     39 C         141.5500  144.4800  159.7716 C.3     1  UNL1        0.0750
     40 N         140.4916  144.6289  158.7191 N.3     1  UNL1       -0.2702
     41 C         139.5555  143.4928  158.4308 C.3     1  UNL1        0.0897
     42 C         140.3693  145.9139  157.9549 C.3     1  UNL1        0.0897
@<TRIPOS>BOND
     1    24    25    1
     2    25    23    1
     3    23    15    1
     4    15    16   ar
     5    16    17   ar
     6     1    17    1
     7     1     2    1
     8     2     3   ar
     9     3     4   ar
    10     4     5   ar
    11     5     6   ar
    12     6     7    1
    13     6     8   ar
    14     8     9   ar
    15     9    10   ar
    16    10    11   ar
    17    11    12   ar
    18    12    13    1
    19    13    14    1
    20     1    26    1
    21    26    27    1
    22    26    38    1
    23    38    39    1
    24    39    40    1
    25    40    41    1
    26    40    42    1
    27    26    29    1
    28    29    30   ar
    29    30    31   ar
    30    31    32   ar
    31    32    33   ar
    32    33    34   ar
    33    34    35   ar
    34    35    36   ar
    35    36    37   ar
    36    17    18   ar
    37    18    19   ar
    38    19    21    1
    39    21    22    1
    40    19    20   ar
    41    20    15   ar
    42    12     2   ar
    43    37    29   ar
    44    10     4   ar
    45    37    33   ar
    46    27    28    1
@<TRIPOS>MOLECULE
*****
 42 46 0 0 0
SMALL
GASTEIGER

@<TRIPOS>ATOM
      1 C         142.0793  141.1292  163.1201 C.3     1  UNL1        0.0764
      2 C         142.3726  141.4592  164.5537 C.ar    1  UNL1        0.0181
      3 C         141.5327  140.8673  165.6465 C.ar    1  UNL1       -0.0009
      4 C         141.8259  141.1973  167.0801 C.ar    1  UNL1        0.0004
      5 C         140.9861  140.6054  168.1729 C.ar    1  UNL1        0.0067
      6 C         141.2793  140.9354  169.6064 C.ar    1  UNL1        0.0346
      7 BR        140.4395  140.3435  170.6993 Br      1  UNL1       -0.0490
      8 C         142.4125  141.8573  169.9472 C.ar    1  UNL1        0.0067
      9 C         143.2524  142.4492  168.8544 C.ar    1  UNL1        0.0006
     10 C         142.9591  142.1192  167.4209 C.ar    1  UNL1        0.0030
     11 C         143.7990  142.7111  166.3280 C.ar    1  UNL1        0.0366
     12 C         143.5057  142.3811  164.8945 C.ar    1  UNL1        0.1351
     13 O         144.3456  142.9730  163.8016 O.3     1  UNL1       -0.4717
     14 C         144.0046  144.3217  163.2406 C.3     1  UNL1        0.2525
     15 C         139.0907  143.5232  162.0777 C.ar    1  UNL1        0.2271
     16 C         139.9579  142.6120  162.8947 C.ar    1  UNL1        0.0540
     17 C         141.2121  142.0404  162.3030 C.ar    1  UNL1       -0.0064
     18 C         141.5991  142.3799  160.8942 C.ar    1  UNL1        0.0540
     19 C         140.7319  143.2911  160.0770 C.ar    1  UNL1        0.2272
     20 N         139.4777  143.8628  160.6687 N.ar    1  UNL1       -0.1767
     21 O         141.1189  143.6307  158.6682 O.3     1  UNL1       -0.4561
     22 C         142.5472  143.9493  158.3389 C.3     1  UNL1        0.2542
     23 O         137.8364  144.0948  162.6694 O.3     1  UNL1       -0.4602
     24 C         138.5442  144.7997  165.0678 C.3     1  UNL1        0.0512
     25 C         137.6200  144.0519  164.1531 C.3     1  UNL1        0.2072
     26 C         142.6533  139.8881  162.5036 C.3     1  UNL1        0.1186
     27 O         143.8572  140.6651  162.0600 O.3     1  UNL1       -0.3819
     28 H         144.6560  140.1341  162.2043 H       1  UNL1        0.2107
     29 C         141.4494  139.1110  162.9473 C.ar    1  UNL1        0.0369
     30 C         141.4674  138.3846  164.2595 C.ar    1  UNL1        0.0010
     31 C         140.2635  137.6075  164.7032 C.ar    1  UNL1       -0.0000
     32 C         139.0417  137.5568  163.8346 C.ar    1  UNL1        0.0031
     33 C         139.0237  138.2831  162.5223 C.ar    1  UNL1        0.0375
     34 C         137.9710  138.4140  161.4619 C.ar    1  UNL1        0.0437
     35 C         138.5241  139.2720  160.3629 C.ar    1  UNL1        0.1796
     36 O         139.9189  139.6714  160.7441 O.2     1  UNL1       -0.4507
     37 C         140.2276  139.0602  162.0787 C.ar    1  UNL1        0.1436
     38 C         143.2273  138.6469  161.8872 C.3     1  UNL1        0.0492
     39 C         144.0955  138.7475  160.6681 C.3     1  UNL1        0.0750
     40 N         143.4798  139.0331  159.3304 N.3     1  UNL1       -0.2702
     41 C         143.8346  140.2912  158.5947 C.3     1  UNL1        0.0897
     42 C         142.5092  138.0606  158.7285 C.3     1  UNL1        0.0897
@<TRIPOS>BOND
     1    24    25    1
     2    25    23    1
     3    23    15    1
     4    15    16   ar
     5    16    17   ar
     6     1    17    1
     7     1     2    1
     8     2     3   ar
     9     3     4   ar
    10     4     5   ar
    11     5     6   ar
    12     6     7    1
    13     6     8   ar
    14     8     9   ar
    15     9    10   ar
    16    10    11   ar
    17    11    12   ar
    18    12    13    1
    19    13    14    1
    20     1    26    1
    21    26    27    1
    22    26    38    1
    23    38    39    1
    24    39    40    1
    25    40    41    1
    26    40    42    1
    27    26    29    1
    28    29    30   ar
    29    30    31   ar
    30    31    32   ar
    31    32    33   ar
    32    33    34   ar
    33    34    35   ar
    34    35    36   ar
    35    36    37   ar
    36    17    18   ar
    37    18    19   ar
    38    19    21    1
    39    21    22    1
    40    19    20   ar
    41    20    15   ar
    42    12     2   ar
    43    37    29   ar
    44    10     4   ar
    45    37    33   ar
    46    27    28    1
@<TRIPOS>MOLECULE
*****
 42 46 0 0 0
SMALL
GASTEIGER

@<TRIPOS>ATOM
      1 C         142.0060  142.0272  162.7388 C.3     1  UNL1        0.0764
      2 C         142.2991  142.1290  164.2064 C.ar    1  UNL1        0.0181
      3 C         141.2333  141.7983  165.2087 C.ar    1  UNL1       -0.0009
      4 C         141.5263  141.9002  166.6763 C.ar    1  UNL1        0.0004
      5 C         140.4605  141.5695  167.6787 C.ar    1  UNL1        0.0067
      6 C         140.7536  141.6714  169.1462 C.ar    1  UNL1        0.0346
      7 BR        139.6878  141.3406  170.1486 Br      1  UNL1       -0.0490
      8 C         142.1124  142.1040  169.6114 C.ar    1  UNL1        0.0067
      9 C         143.1782  142.4347  168.6091 C.ar    1  UNL1        0.0006
     10 C         142.8851  142.3328  167.1416 C.ar    1  UNL1        0.0030
     11 C         143.9510  142.6635  166.1392 C.ar    1  UNL1        0.0366
     12 C         143.6579  142.5616  164.6716 C.ar    1  UNL1        0.1351
     13 O         144.7237  142.8924  163.6692 O.3     1  UNL1       -0.4717
     14 C         145.7044  141.8406  163.2426 C.3     1  UNL1        0.2525
     15 C         143.0922  139.3741  159.9945 C.ar    1  UNL1        0.2271
     16 C         142.9063  140.6806  160.7075 C.ar    1  UNL1        0.0540
     17 C         142.1919  140.7206  162.0258 C.ar    1  UNL1       -0.0064
     18 C         141.6633  139.4541  162.6312 C.ar    1  UNL1        0.0540
     19 C         141.8492  138.1475  161.9182 C.ar    1  UNL1        0.2272
     20 N         142.5636  138.1075  160.5998 N.ar    1  UNL1       -0.1767
     21 O         141.3206  136.8810  162.5235 O.3     1  UNL1       -0.4561
     22 C         140.9642  136.8376  163.9799 C.3     1  UNL1        0.2542
     23 O         143.8066  139.3341  158.6761 O.3     1  UNL1       -0.4602
     24 C         141.8383  139.9012  157.0778 C.3     1  UNL1        0.0512
     25 C         143.0392  139.0680  157.4150 C.3     1  UNL1        0.2072
     26 C         141.5272  143.2319  161.9842 C.3     1  UNL1        0.1186
     27 O         142.9448  143.5783  161.6376 O.3     1  UNL1       -0.3819
     28 H         142.9895  143.8715  160.7141 H       1  UNL1        0.2107
     29 C         140.1095  142.8854  162.3308 C.ar    1  UNL1        0.0369
     30 C         139.3818  141.8329  161.5482 C.ar    1  UNL1        0.0010
     31 C         137.9641  141.4865  161.8948 C.ar    1  UNL1       -0.0000
     32 C         137.2741  142.1925  163.0241 C.ar    1  UNL1        0.0031
     33 C         138.0018  143.2450  163.8068 C.ar    1  UNL1        0.0375
     34 C         137.5844  144.1036  164.9638 C.ar    1  UNL1        0.0437
     35 C         138.7442  144.9807  165.3322 C.ar    1  UNL1        0.1796
     36 O         139.8784  144.6642  164.4029 O.2     1  UNL1       -0.4507
     37 C         139.4195  143.5915  163.4601 C.ar    1  UNL1        0.1436
     38 C         141.0483  144.4366  161.2297 C.3     1  UNL1        0.0492
     39 C         141.6689  144.7911  159.9108 C.3     1  UNL1        0.0750
     40 N         141.7008  143.7818  158.8016 N.3     1  UNL1       -0.2702
     41 C         143.0076  143.4019  158.1707 C.3     1  UNL1        0.0897
     42 C         140.4260  143.1525  158.3232 C.3     1  UNL1        0.0897
@<TRIPOS>BOND
     1    24    25    1
     2    25    23    1
     3    23    15    1
     4    15    16   ar
     5    16    17   ar
     6     1    17    1
     7     1     2    1
     8     2     3   ar
     9     3     4   ar
    10     4     5   ar
    11     5     6   ar
    12     6     7    1
    13     6     8   ar
    14     8     9   ar
    15     9    10   ar
    16    10    11   ar
    17    11    12   ar
    18    12    13    1
    19    13    14    1
    20     1    26    1
    21    26    27    1
    22    26    38    1
    23    38    39    1
    24    39    40    1
    25    40    41    1
    26    40    42    1
    27    26    29    1
    28    29    30   ar
    29    30    31   ar
    30    31    32   ar
    31    32    33   ar
    32    33    34   ar
    33    34    35   ar
    34    35    36   ar
    35    36    37   ar
    36    17    18   ar
    37    18    19   ar
    38    19    21    1
    39    21    22    1
    40    19    20   ar
    41    20    15   ar
    42    12     2   ar
    43    37    29   ar
    44    10     4   ar
    45    37    33   ar
    46    27    28    1
@<TRIPOS>MOLECULE
*****
 42 46 0 0 0
SMALL
GASTEIGER

@<TRIPOS>ATOM
      1 C         140.2742  140.6264  162.8343 C.3     1  UNL1        0.0764
      2 C         140.1009  140.5093  164.3197 C.ar    1  UNL1        0.0181
      3 C         140.3498  141.6981  165.1998 C.ar    1  UNL1       -0.0009
      4 C         140.1764  141.5810  166.6852 C.ar    1  UNL1        0.0004
      5 C         140.4253  142.7698  167.5654 C.ar    1  UNL1        0.0067
      6 C         140.2520  142.6527  169.0507 C.ar    1  UNL1        0.0346
      7 BR        140.5009  143.8415  169.9309 Br      1  UNL1       -0.0490
      8 C         139.8297  141.3467  169.6558 C.ar    1  UNL1        0.0067
      9 C         139.5808  140.1579  168.7757 C.ar    1  UNL1        0.0006
     10 C         139.7542  140.2750  167.2903 C.ar    1  UNL1        0.0030
     11 C         139.5053  139.0862  166.4101 C.ar    1  UNL1        0.0366
     12 C         139.6786  139.2033  164.9248 C.ar    1  UNL1        0.1351
     13 O         139.4297  138.0145  164.0445 O.3     1  UNL1       -0.4717
     14 C         140.5490  137.0667  163.7300 C.3     1  UNL1        0.2525
     15 C         144.1100  141.4889  162.2933 C.ar    1  UNL1        0.2271
     16 C         142.7332  141.4634  162.8880 C.ar    1  UNL1        0.0540
     17 C         141.6510  140.6519  162.2396 C.ar    1  UNL1       -0.0064
     18 C         141.9457  139.8660  160.9964 C.ar    1  UNL1        0.0540
     19 C         143.3225  139.8915  160.4016 C.ar    1  UNL1        0.2272
     20 N         144.4047  140.7029  161.0501 N.ar    1  UNL1       -0.1767
     21 O         143.6172  139.1056  159.1585 O.3     1  UNL1       -0.4561
     22 C         143.3000  139.6853  157.8119 C.3     1  UNL1        0.2542
     23 O         145.1922  142.3003  162.9418 O.3     1  UNL1       -0.4602
     24 C         144.5016  143.5991  165.0833 C.3     1  UNL1        0.0512
     25 C         145.2219  142.4550  164.4335 C.3     1  UNL1        0.2072
     26 C         139.0707  140.7180  161.9436 C.3     1  UNL1        0.1186
     27 O         139.2006  139.2595  161.6182 O.3     1  UNL1       -0.3819
     28 H         138.3211  138.8505  161.6097 H       1  UNL1        0.2107
     29 C         138.9409  142.1765  162.2691 C.ar    1  UNL1        0.0369
     30 C         138.0039  142.6227  163.3521 C.ar    1  UNL1        0.0010
     31 C         137.8740  144.0812  163.6776 C.ar    1  UNL1       -0.0000
     32 C         138.6811  145.0935  162.9200 C.ar    1  UNL1        0.0031
     33 C         139.6181  144.6472  161.8371 C.ar    1  UNL1        0.0375
     34 C         140.5357  145.4087  160.9270 C.ar    1  UNL1        0.0437
     35 C         141.2327  144.4209  160.0391 C.ar    1  UNL1        0.1796
     36 O         140.7458  143.0488  160.4004 O.2     1  UNL1       -0.4507
     37 C         139.7480  143.1887  161.5116 C.ar    1  UNL1        0.1436
     38 C         137.8672  140.8096  161.0530 C.3     1  UNL1        0.0492
     39 C         137.7917  139.9786  159.8064 C.3     1  UNL1        0.0750
     40 N         138.6896  140.2858  158.6448 N.3     1  UNL1       -0.2702
     41 C         138.6850  141.6564  158.0353 C.3     1  UNL1        0.0897
     42 C         139.5921  139.2224  158.0927 C.3     1  UNL1        0.0897
@<TRIPOS>BOND
     1    24    25    1
     2    25    23    1
     3    23    15    1
     4    15    16   ar
     5    16    17   ar
     6     1    17    1
     7     1     2    1
     8     2     3   ar
     9     3     4   ar
    10     4     5   ar
    11     5     6   ar
    12     6     7    1
    13     6     8   ar
    14     8     9   ar
    15     9    10   ar
    16    10    11   ar
    17    11    12   ar
    18    12    13    1
    19    13    14    1
    20     1    26    1
    21    26    27    1
    22    26    38    1
    23    38    39    1
    24    39    40    1
    25    40    41    1
    26    40    42    1
    27    26    29    1
    28    29    30   ar
    29    30    31   ar
    30    31    32   ar
    31    32    33   ar
    32    33    34   ar
    33    34    35   ar
    34    35    36   ar
    35    36    37   ar
    36    17    18   ar
    37    18    19   ar
    38    19    21    1
    39    21    22    1
    40    19    20   ar
    41    20    15   ar
    42    12     2   ar
    43    37    29   ar
    44    10     4   ar
    45    37    33   ar
    46    27    28    1
@<TRIPOS>MOLECULE
*****
 42 46 0 0 0
SMALL
GASTEIGER

@<TRIPOS>ATOM
      1 C         140.9464  140.3204  162.3143 C.3     1  UNL1        0.0764
      2 C         140.2929  140.0053  163.6273 C.ar    1  UNL1        0.0181
      3 C         140.6841  140.7637  164.8608 C.ar    1  UNL1       -0.0009
      4 C         140.0307  140.4486  166.1738 C.ar    1  UNL1        0.0004
      5 C         140.4219  141.2070  167.4074 C.ar    1  UNL1        0.0067
      6 C         139.7684  140.8919  168.7202 C.ar    1  UNL1        0.0346
      7 BR        140.1597  141.6503  169.9539 Br      1  UNL1       -0.0490
      8 C         138.7238  139.8184  168.7995 C.ar    1  UNL1        0.0067
      9 C         138.3325  139.0600  167.5660 C.ar    1  UNL1        0.0006
     10 C         138.9860  139.3751  166.2531 C.ar    1  UNL1        0.0030
     11 C         138.5948  138.6167  165.0194 C.ar    1  UNL1        0.0366
     12 C         139.2482  138.9318  163.7066 C.ar    1  UNL1        0.1351
     13 O         138.8570  138.1734  162.4729 O.3     1  UNL1       -0.4717
     14 C         137.6600  138.6021  161.6770 C.3     1  UNL1        0.2525
     15 C         139.4718  143.9283  161.5672 C.ar    1  UNL1        0.2271
     16 C         139.6861  142.5898  162.2095 C.ar    1  UNL1        0.0540
     17 C         140.7321  141.6588  161.6720 C.ar    1  UNL1       -0.0064
     18 C         141.5638  142.0662  160.4921 C.ar    1  UNL1        0.0540
     19 C         141.3496  143.4047  159.8497 C.ar    1  UNL1        0.2272
     20 N         140.3036  144.3357  160.3873 N.ar    1  UNL1       -0.1767
     21 O         142.1813  143.8121  158.6698 O.3     1  UNL1       -0.4561
     22 C         143.5356  143.2020  158.4605 C.3     1  UNL1        0.2542
     23 O         138.4257  144.8593  162.1048 O.3     1  UNL1       -0.4602
     24 C         138.1949  144.5052  164.6683 C.3     1  UNL1        0.0512
     25 C         137.6015  144.4564  163.2915 C.3     1  UNL1        0.2072
     26 C         141.8141  139.2969  161.6437 C.3     1  UNL1        0.1186
     27 O         140.8651  139.2529  160.4829 O.3     1  UNL1       -0.3819
     28 H         141.3688  139.2176  159.6547 H       1  UNL1        0.2107
     29 C         142.7631  139.3410  162.8046 C.ar    1  UNL1        0.0369
     30 C         142.6250  138.3522  163.9240 C.ar    1  UNL1        0.0010
     31 C         143.5740  138.3962  165.0848 C.ar    1  UNL1       -0.0000
     32 C         144.6610  139.4290  165.1262 C.ar    1  UNL1        0.0031
     33 C         144.7991  140.4177  164.0067 C.ar    1  UNL1        0.0375
     34 C         145.7650  141.5414  163.7734 C.ar    1  UNL1        0.0437
     35 C         145.4130  142.1918  162.4684 C.ar    1  UNL1        0.1796
     36 O         144.2295  141.4701  161.8951 O.2     1  UNL1       -0.4507
     37 C         143.8501  140.3737  162.8459 C.ar    1  UNL1        0.1436
     38 C         142.6818  138.2735  160.9732 C.3     1  UNL1        0.0492
     39 C         143.5731  138.6754  159.8355 C.3     1  UNL1        0.0750
     40 N         143.1122  138.4899  158.4201 N.3     1  UNL1       -0.2702
     41 C         142.6418  137.1438  157.9548 C.3     1  UNL1        0.0897
     42 C         143.1219  139.6507  157.4700 C.3     1  UNL1        0.0897
@<TRIPOS>BOND
     1    24    25    1
     2    25    23    1
     3    23    15    1
     4    15    16   ar
     5    16    17   ar
     6     1    17    1
     7     1     2    1
     8     2     3   ar
     9     3     4   ar
    10     4     5   ar
    11     5     6   ar
    12     6     7    1
    13     6     8   ar
    14     8     9   ar
    15     9    10   ar
    16    10    11   ar
    17    11    12   ar
    18    12    13    1
    19    13    14    1
    20     1    26    1
    21    26    27    1
    22    26    38    1
    23    38    39    1
    24    39    40    1
    25    40    41    1
    26    40    42    1
    27    26    29    1
    28    29    30   ar
    29    30    31   ar
    30    31    32   ar
    31    32    33   ar
    32    33    34   ar
    33    34    35   ar
    34    35    36   ar
    35    36    37   ar
    36    17    18   ar
    37    18    19   ar
    38    19    21    1
    39    21    22    1
    40    19    20   ar
    41    20    15   ar
    42    12     2   ar
    43    37    29   ar
    44    10     4   ar
    45    37    33   ar
    46    27    28    1
@<TRIPOS>MOLECULE
*****
 42 46 0 0 0
SMALL
GASTEIGER

@<TRIPOS>ATOM
      1 C         140.4788  141.8790  163.3907 C.3     1  UNL1        0.0764
      2 C         140.5867  141.9435  164.8854 C.ar    1  UNL1        0.0181
      3 C         141.2431  140.8250  165.6390 C.ar    1  UNL1       -0.0009
      4 C         141.3510  140.8895  167.1338 C.ar    1  UNL1        0.0004
      5 C         142.0074  139.7710  167.8873 C.ar    1  UNL1        0.0067
      6 C         142.1153  139.8356  169.3820 C.ar    1  UNL1        0.0346
      7 BR        142.7717  138.7170  170.1357 Br      1  UNL1       -0.0490
      8 C         141.5667  141.0187  170.1232 C.ar    1  UNL1        0.0067
      9 C         140.9102  142.1372  169.3696 C.ar    1  UNL1        0.0006
     10 C         140.8024  142.0727  167.8749 C.ar    1  UNL1        0.0030
     11 C         140.1459  143.1912  167.1212 C.ar    1  UNL1        0.0366
     12 C         140.0381  143.1266  165.6265 C.ar    1  UNL1        0.1351
     13 O         139.3816  144.2452  164.8729 O.3     1  UNL1       -0.4717
     14 C         137.9538  144.6054  165.1585 C.3     1  UNL1        0.2525
     15 C         144.1626  142.3625  161.9958 C.ar    1  UNL1        0.2271
     16 C         143.0201  141.9005  162.8508 C.ar    1  UNL1        0.0540
     17 C         141.6213  142.3410  162.5356 C.ar    1  UNL1       -0.0064
     18 C         141.3651  143.2437  161.3654 C.ar    1  UNL1        0.0540
     19 C         142.5076  143.7058  160.5103 C.ar    1  UNL1        0.2272
     20 N         143.9064  143.2652  160.8255 N.ar    1  UNL1       -0.1767
     21 O         142.2514  144.6084  159.3400 O.3     1  UNL1       -0.4561
     22 C         140.9222  145.2880  159.1940 C.3     1  UNL1        0.2542
     23 O         145.5613  141.9219  162.3110 O.3     1  UNL1       -0.4602
     24 C         145.3120  140.1472  164.1921 C.3     1  UNL1        0.0512
     25 C         145.9009  141.4311  163.6872 C.3     1  UNL1        0.2072
     26 C         139.2284  141.3524  162.7510 C.3     1  UNL1        0.1186
     27 O         138.8101  142.7532  162.4155 O.3     1  UNL1       -0.3819
     28 H         138.4367  142.7736  161.5204 H       1  UNL1        0.2107
     29 C         139.6467  139.9515  163.0865 C.ar    1  UNL1        0.0369
     30 C         140.6649  139.2492  162.2380 C.ar    1  UNL1        0.0010
     31 C         141.0832  137.8484  162.5735 C.ar    1  UNL1       -0.0000
     32 C         140.4834  137.1498  163.7576 C.ar    1  UNL1        0.0031
     33 C         139.4652  137.8521  164.6061 C.ar    1  UNL1        0.0375
     34 C         138.7060  137.4212  165.8260 C.ar    1  UNL1        0.0437
     35 C         137.8185  138.5558  166.2444 C.ar    1  UNL1        0.1796
     36 O         138.0291  139.6879  165.2831 O.2     1  UNL1       -0.4507
     37 C         139.0469  139.2529  164.2706 C.ar    1  UNL1        0.1436
     38 C         137.9780  140.8258  162.1113 C.3     1  UNL1        0.0492
     39 C         137.9864  140.4253  160.6658 C.3     1  UNL1        0.0750
     40 N         138.8116  141.1966  159.6787 N.3     1  UNL1       -0.2702
     41 C         140.1032  140.6258  159.1728 C.3     1  UNL1        0.0897
     42 C         138.3451  142.5386  159.1976 C.3     1  UNL1        0.0897
@<TRIPOS>BOND
     1    24    25    1
     2    25    23    1
     3    23    15    1
     4    15    16   ar
     5    16    17   ar
     6     1    17    1
     7     1     2    1
     8     2     3   ar
     9     3     4   ar
    10     4     5   ar
    11     5     6   ar
    12     6     7    1
    13     6     8   ar
    14     8     9   ar
    15     9    10   ar
    16    10    11   ar
    17    11    12   ar
    18    12    13    1
    19    13    14    1
    20     1    26    1
    21    26    27    1
    22    26    38    1
    23    38    39    1
    24    39    40    1
    25    40    41    1
    26    40    42    1
    27    26    29    1
    28    29    30   ar
    29    30    31   ar
    30    31    32   ar
    31    32    33   ar
    32    33    34   ar
    33    34    35   ar
    34    35    36   ar
    35    36    37   ar
    36    17    18   ar
    37    18    19   ar
    38    19    21    1
    39    21    22    1
    40    19    20   ar
    41    20    15   ar
    42    12     2   ar
    43    37    29   ar
    44    10     4   ar
    45    37    33   ar
    46    27    28    1
@<TRIPOS>MOLECULE
*****
 42 46 0 0 0
SMALL
GASTEIGER

@<TRIPOS>ATOM
      1 C         140.2225  140.5261  162.9343 C.3     1  UNL1        0.0764
      2 C         140.0918  140.4413  164.4263 C.ar    1  UNL1        0.0181
      3 C         140.3265  141.6590  165.2701 C.ar    1  UNL1       -0.0009
      4 C         140.1958  141.5742  166.7620 C.ar    1  UNL1        0.0004
      5 C         140.4305  142.7919  167.6059 C.ar    1  UNL1        0.0067
      6 C         140.2998  142.7070  169.0977 C.ar    1  UNL1        0.0346
      7 BR        140.5345  143.9248  169.9417 Br      1  UNL1       -0.0490
      8 C         139.9345  141.4045  169.7457 C.ar    1  UNL1        0.0067
      9 C         139.6998  140.1868  168.9019 C.ar    1  UNL1        0.0006
     10 C         139.8305  140.2717  167.4100 C.ar    1  UNL1        0.0030
     11 C         139.5958  139.0539  166.5661 C.ar    1  UNL1        0.0366
     12 C         139.7265  139.1388  165.0743 C.ar    1  UNL1        0.1351
     13 O         139.4918  137.9211  164.2303 O.3     1  UNL1       -0.4717
     14 C         140.6341  137.0074  163.8981 C.3     1  UNL1        0.2525
     15 C         143.1838  139.5265  160.4886 C.ar    1  UNL1        0.2271
     16 C         141.8270  139.5736  161.1266 C.ar    1  UNL1        0.0540
     17 C         141.5793  140.4791  162.2964 C.ar    1  UNL1       -0.0064
     18 C         142.6882  141.3377  162.8283 C.ar    1  UNL1        0.0540
     19 C         144.0451  141.2907  162.1904 C.ar    1  UNL1        0.2272
     20 N         144.2928  140.3851  161.0206 N.ar    1  UNL1       -0.1767
     21 O         145.1540  142.1493  162.7224 O.3     1  UNL1       -0.4561
     22 C         145.8360  141.7827  164.0071 C.3     1  UNL1        0.2542
     23 O         143.4316  138.6210  159.3188 O.3     1  UNL1       -0.4602
     24 C         142.8771  140.5036  157.6164 C.3     1  UNL1        0.0512
     25 C         143.0188  139.0460  157.9407 C.3     1  UNL1        0.2072
     26 C         138.9964  140.6580  162.0804 C.3     1  UNL1        0.1186
     27 O         138.9932  139.1748  161.8560 O.3     1  UNL1       -0.3819
     28 H         138.0834  138.8422  161.9064 H       1  UNL1        0.2107
     29 C         138.9996  142.1411  162.3047 C.ar    1  UNL1        0.0369
     30 C         138.1852  142.7332  163.4165 C.ar    1  UNL1        0.0010
     31 C         138.1884  144.2163  163.6408 C.ar    1  UNL1       -0.0000
     32 C         139.0060  145.1073  162.7534 C.ar    1  UNL1        0.0031
     33 C         139.8204  144.5152  161.6416 C.ar    1  UNL1        0.0375
     34 C         140.7176  145.1376  160.6132 C.ar    1  UNL1        0.0437
     35 C         141.2689  144.0392  159.7532 C.ar    1  UNL1        0.1796
     36 O         140.7124  142.7378  160.2502 O.2     1  UNL1       -0.4507
     37 C         139.8172  143.0321  161.4173 C.ar    1  UNL1        0.1436
     38 C         137.7703  140.7898  161.2264 C.3     1  UNL1        0.0492
     39 C         137.5105  139.8003  160.1293 C.3     1  UNL1        0.0750
     40 N         138.1750  139.9683  158.7950 N.3     1  UNL1       -0.2702
     41 C         139.3854  139.1516  158.4519 C.3     1  UNL1        0.0897
     42 C         137.6290  140.9531  157.8039 C.3     1  UNL1        0.0897
@<TRIPOS>BOND
     1    24    25    1
     2    25    23    1
     3    23    15    1
     4    15    16   ar
     5    16    17   ar
     6     1    17    1
     7     1     2    1
     8     2     3   ar
     9     3     4   ar
    10     4     5   ar
    11     5     6   ar
    12     6     7    1
    13     6     8   ar
    14     8     9   ar
    15     9    10   ar
    16    10    11   ar
    17    11    12   ar
    18    12    13    1
    19    13    14    1
    20     1    26    1
    21    26    27    1
    22    26    38    1
    23    38    39    1
    24    39    40    1
    25    40    41    1
    26    40    42    1
    27    26    29    1
    28    29    30   ar
    29    30    31   ar
    30    31    32   ar
    31    32    33   ar
    32    33    34   ar
    33    34    35   ar
    34    35    36   ar
    35    36    37   ar
    36    17    18   ar
    37    18    19   ar
    38    19    21    1
    39    21    22    1
    40    19    20   ar
    41    20    15   ar
    42    12     2   ar
    43    37    29   ar
    44    10     4   ar
    45    37    33   ar
    46    27    28    1
