@<TRIPOS>MOLECULE
*****
 30 32 0 0 0
SMALL
GASTEIGER

@<TRIPOS>ATOM
      1 C         137.3195  141.3352  163.3508 C.3     1  UNL1        0.1040
      2 C         138.9902  140.3552  165.0825 C.2     1  UNL1        0.2489
      3 O         139.1029  139.1027  164.2650 O.2     1  UNL1       -0.2700
      4 N         138.0985  141.4715  164.6255 N.am    1  UNL1       -0.2995
      5 H         138.0245  142.2935  165.1621 H       1  UNL1        0.1498
      6 C         144.4797  142.6061  170.2227 C.3     1  UNL1        0.0540
      7 C         143.3250  142.0251  169.4618 C.ar    1  UNL1        0.0824
      8 C         142.2886  141.0899  170.0106 C.ar    1  UNL1        0.0552
      9 C         141.3270  140.7640  168.9064 C.ar    1  UNL1        0.1650
     10 N         140.1059  139.8939  168.8630 N.ar    1  UNL1       -0.2248
     11 C         139.3270  139.7577  167.5884 C.ar    1  UNL1        0.1066
     12 C         139.7691  140.4915  166.3572 C.ar    1  UNL1        0.0917
     13 C         140.9902  141.3616  166.4005 C.ar    1  UNL1        0.1081
     14 N         141.7691  141.4979  167.6751 N.ar    1  UNL1       -0.2108
     15 N         143.0039  142.2772  168.0184 N.ar    1  UNL1       -0.1680
     16 C         137.7305  142.1102  162.1342 C.3     1  UNL1        0.0606
     17 C         137.7249  143.3761  162.9387 C.3     1  UNL1        0.0175
     18 C         137.7361  140.8442  161.3296 C.3     1  UNL1        0.0175
     19 N         138.1415  142.8852  160.9175 N.3     1  UNL1       -0.2905
     20 H         137.7313  143.8147  161.0079 H       1  UNL1        0.1237
     21 C         139.5964  143.0822  160.6098 C.3     1  UNL1        0.1551
     22 C         140.6402  142.4967  161.5141 C.2     1  UNL1        0.2425
     23 O         140.9503  141.0305  161.4510 O.2     1  UNL1       -0.2733
     24 N         141.3738  143.3775  162.4816 N.am    1  UNL1       -0.2674
     25 C         142.4375  142.9370  163.4431 C.3     1  UNL1        0.0945
     26 C         142.8937  144.1407  164.2132 C.3     1  UNL1        0.0244
     27 C         142.1120  145.3252  163.7275 C.3     1  UNL1        0.0373
     28 C         141.1726  144.8536  162.6573 C.3     1  UNL1        0.1672
     29 C         140.2025  145.7079  161.8965 C.1     1  UNL1        0.0926
     30 N         139.2324  146.5623  161.1356 N.1     1  UNL1       -0.1942
@<TRIPOS>BOND
     1     6     7    1
     2     7     8   ar
     3     8     9   ar
     4     9    10   ar
     5    10    11   ar
     6    11    12   ar
     7    12     2    1
     8     2     3    2
     9     2     4   am
    10     4     1    1
    11     1    16    1
    12    16    17    1
    13    16    18    1
    14    16    19    1
    15    19    21    1
    16    21    22    1
    17    22    23    2
    18    22    24   am
    19    24    25    1
    20    25    26    1
    21    26    27    1
    22    27    28    1
    23    28    29    1
    24    29    30    3
    25    12    13   ar
    26    13    14   ar
    27    14    15   ar
    28    15     7   ar
    29    14     9   ar
    30    28    24    1
    31     4     5    1
    32    19    20    1
@<TRIPOS>MOLECULE
*****
 30 32 0 0 0
SMALL
GASTEIGER

@<TRIPOS>ATOM
      1 C         137.7614  140.5167  161.6509 C.3     1  UNL1        0.1040
      2 C         138.4447  139.4992  163.9418 C.2     1  UNL1        0.2489
      3 O         138.6940  138.1764  163.2799 O.2     1  UNL1       -0.2700
      4 N         137.9784  140.6693  163.1273 N.am    1  UNL1       -0.2995
      5 H         137.8148  141.5375  163.5617 H       1  UNL1        0.1498
      6 C         141.1746  142.1481  170.8087 C.3     1  UNL1        0.0540
      7 C         140.5003  141.4598  169.6591 C.ar    1  UNL1        0.0824
      8 C         139.5101  140.3377  169.7613 C.ar    1  UNL1        0.0552
      9 C         139.0956  139.9571  168.3708 C.ar    1  UNL1        0.1650
     10 N         138.1447  138.9176  167.8561 N.ar    1  UNL1       -0.2248
     11 C         137.9277  138.7650  166.3798 C.ar    1  UNL1        0.1066
     12 C         138.6617  139.6519  165.4182 C.ar    1  UNL1        0.0917
     13 C         139.6127  140.6914  165.9329 C.ar    1  UNL1        0.1081
     14 N         139.8296  140.8440  167.4093 N.ar    1  UNL1       -0.2108
     15 N         140.6978  141.7727  168.2055 N.ar    1  UNL1       -0.1680
     16 C         138.5241  141.3773  160.6878 C.3     1  UNL1        0.0606
     17 C         138.8959  140.1598  159.8944 C.3     1  UNL1        0.0175
     18 C         138.1523  142.5947  161.4813 C.3     1  UNL1        0.0175
     19 N         139.2868  142.2379  159.7247 N.3     1  UNL1       -0.2905
     20 H         138.5973  142.7832  159.2074 H       1  UNL1        0.1237
     21 C         140.3117  143.2073  160.2345 C.3     1  UNL1        0.1551
     22 C         141.4653  142.7154  161.0575 C.2     1  UNL1        0.2425
     23 O         142.0912  141.3867  160.7530 O.2     1  UNL1       -0.2733
     24 N         141.9931  143.5524  162.1849 N.am    1  UNL1       -0.2674
     25 C         143.1345  143.1939  163.0897 C.3     1  UNL1        0.0945
     26 C         143.3190  144.3147  164.0694 C.3     1  UNL1        0.0244
     27 C         142.2916  145.3658  163.7701 C.3     1  UNL1        0.0373
     28 C         141.4721  144.8947  162.6054 C.3     1  UNL1        0.1672
     29 C         140.3319  145.6357  161.9723 C.1     1  UNL1        0.0926
     30 N         139.1917  146.3768  161.3393 N.1     1  UNL1       -0.1942
@<TRIPOS>BOND
     1     6     7    1
     2     7     8   ar
     3     8     9   ar
     4     9    10   ar
     5    10    11   ar
     6    11    12   ar
     7    12     2    1
     8     2     3    2
     9     2     4   am
    10     4     1    1
    11     1    16    1
    12    16    17    1
    13    16    18    1
    14    16    19    1
    15    19    21    1
    16    21    22    1
    17    22    23    2
    18    22    24   am
    19    24    25    1
    20    25    26    1
    21    26    27    1
    22    27    28    1
    23    28    29    1
    24    29    30    3
    25    12    13   ar
    26    13    14   ar
    27    14    15   ar
    28    15     7   ar
    29    14     9   ar
    30    28    24    1
    31     4     5    1
    32    19    20    1
@<TRIPOS>MOLECULE
*****
 30 32 0 0 0
SMALL
GASTEIGER

@<TRIPOS>ATOM
      1 C         137.6993  140.7919  161.9908 C.3     1  UNL1        0.1040
      2 C         138.4223  139.6875  164.2286 C.2     1  UNL1        0.2489
      3 O         138.7071  138.4055  163.5039 O.2     1  UNL1       -0.2700
      4 N         137.9184  140.8807  163.4721 N.am    1  UNL1       -0.2995
      5 H         137.7315  141.7221  163.9478 H       1  UNL1        0.1498
      6 C         141.2267  141.9784  171.1935 C.3     1  UNL1        0.0540
      7 C         140.5318  141.3577  170.0180 C.ar    1  UNL1        0.0824
      8 C         139.5038  140.2669  170.0766 C.ar    1  UNL1        0.0552
      9 C         139.0794  139.9539  168.6724 C.ar    1  UNL1        0.1650
     10 N         138.0948  138.9677  168.1176 N.ar    1  UNL1       -0.2248
     11 C         137.8757  138.8789  166.6364 C.ar    1  UNL1        0.1066
     12 C         138.6414  139.7763  165.7099 C.ar    1  UNL1        0.0917
     13 C         139.6260  140.7625  166.2646 C.ar    1  UNL1        0.1081
     14 N         139.8451  140.8513  167.7458 N.ar    1  UNL1       -0.2108
     15 N         140.7426  141.7189  168.5775 N.ar    1  UNL1       -0.1680
     16 C         138.0672  141.9471  161.1076 C.3     1  UNL1        0.0606
     17 C         137.8229  142.8943  162.2448 C.3     1  UNL1        0.0175
     18 C         138.3114  141.0000  159.9704 C.3     1  UNL1        0.0175
     19 N         138.4350  143.1024  160.2244 N.3     1  UNL1       -0.2905
     20 H         137.8304  143.8799  160.4896 H       1  UNL1        0.1237
     21 C         139.8401  143.6275  160.2227 C.3     1  UNL1        0.1551
     22 C         140.2296  144.7307  161.1615 C.2     1  UNL1        0.2425
     23 O         139.5421  146.0614  161.0813 O.2     1  UNL1       -0.2733
     24 N         141.3066  144.5032  162.1804 N.am    1  UNL1       -0.2674
     25 C         141.8005  145.5063  163.1804 C.3     1  UNL1        0.0945
     26 C         142.8780  144.8557  163.9963 C.3     1  UNL1        0.0244
     27 C         143.0501  143.4504  163.5006 C.3     1  UNL1        0.0373
     28 C         142.0789  143.2325  162.3783 C.3     1  UNL1        0.1672
     29 C         141.9097  141.9664  161.5921 C.1     1  UNL1        0.0926
     30 N         141.7406  140.7003  160.8057 N.1     1  UNL1       -0.1942
@<TRIPOS>BOND
     1     6     7    1
     2     7     8   ar
     3     8     9   ar
     4     9    10   ar
     5    10    11   ar
     6    11    12   ar
     7    12     2    1
     8     2     3    2
     9     2     4   am
    10     4     1    1
    11     1    16    1
    12    16    17    1
    13    16    18    1
    14    16    19    1
    15    19    21    1
    16    21    22    1
    17    22    23    2
    18    22    24   am
    19    24    25    1
    20    25    26    1
    21    26    27    1
    22    27    28    1
    23    28    29    1
    24    29    30    3
    25    12    13   ar
    26    13    14   ar
    27    14    15   ar
    28    15     7   ar
    29    14     9   ar
    30    28    24    1
    31     4     5    1
    32    19    20    1
@<TRIPOS>MOLECULE
*****
 30 32 0 0 0
SMALL
GASTEIGER

@<TRIPOS>ATOM
      1 C         141.8129  138.8788  161.4437 C.3     1  UNL1        0.1040
      2 C         141.7894  138.2619  163.9673 C.2     1  UNL1        0.2489
      3 O         141.2436  136.9058  163.6308 O.2     1  UNL1       -0.2700
      4 N         142.0740  139.2484  162.8739 N.am    1  UNL1       -0.2995
      5 H         142.4322  140.1384  163.0948 H       1  UNL1        0.1498
      6 C         140.9085  141.4307  171.0952 C.3     1  UNL1        0.0540
      7 C         141.3206  140.7171  169.8418 C.ar    1  UNL1        0.0824
      8 C         142.5628  139.8955  169.6628 C.ar    1  UNL1        0.0552
      9 C         142.5728  139.3704  168.2577 C.ar    1  UNL1        0.1650
     10 N         143.5477  138.5039  167.5170 N.ar    1  UNL1       -0.2248
     11 C         143.2865  138.1344  166.0869 C.ar    1  UNL1        0.1066
     12 C         142.0505  138.6314  165.3975 C.ar    1  UNL1        0.0917
     13 C         141.0756  139.4979  166.1383 C.ar    1  UNL1        0.1081
     14 N         141.3368  139.8674  167.5684 N.ar    1  UNL1       -0.2108
     15 N         140.5629  140.6997  168.5474 N.ar    1  UNL1       -0.1680
     16 C         140.7209  139.5662  160.6788 C.3     1  UNL1        0.0606
     17 C         139.9591  138.2761  160.6070 C.3     1  UNL1        0.0175
     18 C         141.4827  140.8563  160.7506 C.3     1  UNL1        0.0175
     19 N         139.6290  140.2536  159.9139 N.3     1  UNL1       -0.2905
     20 H         139.3005  139.5918  159.2106 H       1  UNL1        0.1237
     21 C         138.4138  140.7599  160.6329 C.3     1  UNL1        0.1551
     22 C         138.2655  142.2258  160.9147 C.2     1  UNL1        0.2425
     23 O         138.2633  143.2105  159.7832 O.2     1  UNL1       -0.2733
     24 N         138.1195  142.7069  162.3279 N.am    1  UNL1       -0.2674
     25 C         137.9633  144.1343  162.7617 C.3     1  UNL1        0.0945
     26 C         137.8513  144.1546  164.2574 C.3     1  UNL1        0.0244
     27 C         137.9381  142.7398  164.7480 C.3     1  UNL1        0.0373
     28 C         138.1039  141.8450  163.5555 C.3     1  UNL1        0.1672
     29 C         138.2316  140.3508  163.5854 C.1     1  UNL1        0.0926
     30 N         138.3594  138.8565  163.6152 N.1     1  UNL1       -0.1942
@<TRIPOS>BOND
     1     6     7    1
     2     7     8   ar
     3     8     9   ar
     4     9    10   ar
     5    10    11   ar
     6    11    12   ar
     7    12     2    1
     8     2     3    2
     9     2     4   am
    10     4     1    1
    11     1    16    1
    12    16    17    1
    13    16    18    1
    14    16    19    1
    15    19    21    1
    16    21    22    1
    17    22    23    2
    18    22    24   am
    19    24    25    1
    20    25    26    1
    21    26    27    1
    22    27    28    1
    23    28    29    1
    24    29    30    3
    25    12    13   ar
    26    13    14   ar
    27    14    15   ar
    28    15     7   ar
    29    14     9   ar
    30    28    24    1
    31     4     5    1
    32    19    20    1
@<TRIPOS>MOLECULE
*****
 30 32 0 0 0
SMALL
GASTEIGER

@<TRIPOS>ATOM
      1 C         138.3799  139.7691  161.8512 C.3     1  UNL1        0.1040
      2 C         138.6678  138.9633  164.3043 C.2     1  UNL1        0.2489
      3 O         138.8257  137.5517  163.8221 O.2     1  UNL1       -0.2700
      4 N         138.4449  140.0720  163.3189 N.am    1  UNL1       -0.2995
      5 H         138.3413  140.9985  163.6354 H       1  UNL1        0.1498
      6 C         140.9104  142.0912  171.1461 C.3     1  UNL1        0.0540
      7 C         140.2900  141.3504  169.9988 C.ar    1  UNL1        0.0824
      8 C         139.1611  140.3670  170.0915 C.ar    1  UNL1        0.0552
      9 C         138.8629  139.8718  168.7073 C.ar    1  UNL1        0.1650
     10 N         137.8533  138.8917  168.1878 N.ar    1  UNL1       -0.2248
     11 C         137.7883  138.5889  166.7202 C.ar    1  UNL1        0.1066
     12 C         138.7329  139.2662  165.7720 C.ar    1  UNL1        0.0917
     13 C         139.7425  140.2464  166.2915 C.ar    1  UNL1        0.1081
     14 N         139.8075  140.5492  167.7592 N.ar    1  UNL1       -0.2108
     15 N         140.6894  141.4630  168.5574 N.ar    1  UNL1       -0.1680
     16 C         139.5565  140.0691  160.9706 C.3     1  UNL1        0.0606
     17 C         139.4819  141.5148  161.3635 C.3     1  UNL1        0.0175
     18 C         139.6311  138.6235  160.5777 C.3     1  UNL1        0.0175
     19 N         140.7332  140.3692  160.0900 N.3     1  UNL1       -0.2905
     20 H         140.7458  141.3794  159.9496 H       1  UNL1        0.1237
     21 C         142.1140  139.9748  160.5233 C.3     1  UNL1        0.1551
     22 C         143.1691  141.0242  160.7122 C.2     1  UNL1        0.2425
     23 O         143.3452  142.1040  159.6860 O.2     1  UNL1       -0.2733
     24 N         144.0481  140.9937  161.9273 N.am    1  UNL1       -0.2674
     25 C         145.1398  141.9703  162.2505 C.3     1  UNL1        0.0945
     26 C         145.7562  141.5615  163.5555 C.3     1  UNL1        0.0244
     27 C         145.0454  140.3322  164.0388 C.3     1  UNL1        0.0373
     28 C         143.9897  139.9813  163.0326 C.3     1  UNL1        0.1672
     29 C         143.0421  138.8216  163.1168 C.1     1  UNL1        0.0926
     30 N         142.0945  137.6619  163.2011 N.1     1  UNL1       -0.1942
@<TRIPOS>BOND
     1     6     7    1
     2     7     8   ar
     3     8     9   ar
     4     9    10   ar
     5    10    11   ar
     6    11    12   ar
     7    12     2    1
     8     2     3    2
     9     2     4   am
    10     4     1    1
    11     1    16    1
    12    16    17    1
    13    16    18    1
    14    16    19    1
    15    19    21    1
    16    21    22    1
    17    22    23    2
    18    22    24   am
    19    24    25    1
    20    25    26    1
    21    26    27    1
    22    27    28    1
    23    28    29    1
    24    29    30    3
    25    12    13   ar
    26    13    14   ar
    27    14    15   ar
    28    15     7   ar
    29    14     9   ar
    30    28    24    1
    31     4     5    1
    32    19    20    1
@<TRIPOS>MOLECULE
*****
 30 32 0 0 0
SMALL
GASTEIGER

@<TRIPOS>ATOM
      1 C         140.7489  145.0147  163.9548 C.3     1  UNL1        0.1040
      2 C         140.3510  145.2933  161.4025 C.2     1  UNL1        0.2489
      3 O         138.9450  145.7418  161.6707 O.2     1  UNL1       -0.2700
      4 N         141.2530  144.9297  162.5445 N.am    1  UNL1       -0.2995
      5 H         142.1758  144.6354  162.3685 H       1  UNL1        0.1498
      6 C         140.8974  146.3259  153.6399 C.3     1  UNL1        0.0540
      7 C         141.0330  145.9727  155.0914 C.ar    1  UNL1        0.0824
      8 C         142.1183  145.1327  155.6968 C.ar    1  UNL1        0.0552
      9 C         141.8632  145.0384  157.1719 C.ar    1  UNL1        0.1650
     10 N         142.6021  144.3416  158.2757 N.ar    1  UNL1       -0.2248
     11 C         142.0981  144.4266  159.6859 C.ar    1  UNL1        0.1066
     12 C         140.8551  145.2083  159.9923 C.ar    1  UNL1        0.0917
     13 C         140.1161  145.9051  158.8884 C.ar    1  UNL1        0.1081
     14 N         140.6202  145.8201  157.4783 N.ar    1  UNL1       -0.2108
     15 N         140.1071  146.3975  156.1924 N.ar    1  UNL1       -0.1680
     16 C         140.0718  143.8322  164.5818 C.3     1  UNL1        0.0606
     17 C         141.2069  142.9525  164.1486 C.3     1  UNL1        0.0175
     18 C         138.9367  144.7118  165.0150 C.3     1  UNL1        0.0175
     19 N         139.3947  142.6497  165.2088 N.3     1  UNL1       -0.2905
     20 H         139.3219  142.8471  166.2068 H       1  UNL1        0.1237
     21 C         138.0283  142.2365  164.7482 C.3     1  UNL1        0.1551
     22 C         137.8477  141.6237  163.3910 C.2     1  UNL1        0.2425
     23 O         137.3502  142.4610  162.2502 O.2     1  UNL1       -0.2733
     24 N         138.1646  140.1737  163.1746 N.am    1  UNL1       -0.2674
     25 C         138.0342  139.4262  161.8807 C.3     1  UNL1        0.0945
     26 C         138.4566  138.0070  162.1205 C.3     1  UNL1        0.0244
     27 C         138.8481  137.8774  163.5627 C.3     1  UNL1        0.0373
     28 C         138.6677  139.2164  164.2143 C.3     1  UNL1        0.1672
     29 C         138.9420  139.5412  165.6527 C.1     1  UNL1        0.0926
     30 N         139.2164  139.8660  167.0912 N.1     1  UNL1       -0.1942
@<TRIPOS>BOND
     1     6     7    1
     2     7     8   ar
     3     8     9   ar
     4     9    10   ar
     5    10    11   ar
     6    11    12   ar
     7    12     2    1
     8     2     3    2
     9     2     4   am
    10     4     1    1
    11     1    16    1
    12    16    17    1
    13    16    18    1
    14    16    19    1
    15    19    21    1
    16    21    22    1
    17    22    23    2
    18    22    24   am
    19    24    25    1
    20    25    26    1
    21    26    27    1
    22    27    28    1
    23    28    29    1
    24    29    30    3
    25    12    13   ar
    26    13    14   ar
    27    14    15   ar
    28    15     7   ar
    29    14     9   ar
    30    28    24    1
    31     4     5    1
    32    19    20    1
@<TRIPOS>MOLECULE
*****
 30 32 0 0 0
SMALL
GASTEIGER

@<TRIPOS>ATOM
      1 C         144.4480  142.8698  162.4050 C.3     1  UNL1        0.1040
      2 C         143.7166  140.9493  163.9946 C.2     1  UNL1        0.2489
      3 O         143.6755  140.0025  162.8319 O.2     1  UNL1       -0.2700
      4 N         144.1028  142.3829  163.7812 N.am    1  UNL1       -0.2995
      5 H         144.1297  143.0043  164.5443 H       1  UNL1        0.1498
      6 C         140.9629  140.8063  171.3444 C.3     1  UNL1        0.0540
      7 C         141.5688  140.5623  169.9941 C.ar    1  UNL1        0.0824
      8 C         142.2156  139.2892  169.5350 C.ar    1  UNL1        0.0552
      9 C         142.6810  139.4886  168.1230 C.ar    1  UNL1        0.1650
     10 N         143.3853  138.5791  167.1604 N.ar    1  UNL1       -0.2248
     11 C         143.7305  139.0660  165.7843 C.ar    1  UNL1        0.1066
     12 C         143.3713  140.4624  165.3708 C.ar    1  UNL1        0.0917
     13 C         142.6670  141.3719  166.3334 C.ar    1  UNL1        0.1081
     14 N         142.3218  140.8850  167.7095 N.ar    1  UNL1       -0.2108
     15 N         141.6345  141.5486  168.8659 N.ar    1  UNL1       -0.1680
     16 C         143.4934  143.7565  161.6617 C.3     1  UNL1        0.0606
     17 C         143.6190  142.8780  160.4524 C.3     1  UNL1        0.0175
     18 C         143.3678  144.6350  162.8710 C.3     1  UNL1        0.0175
     19 N         142.5388  144.6432  160.9185 N.3     1  UNL1       -0.2905
     20 H         142.8746  144.6967  159.9568 H       1  UNL1        0.1237
     21 C         141.0833  144.2872  160.8496 C.3     1  UNL1        0.1551
     22 C         140.1154  144.8971  161.8199 C.2     1  UNL1        0.2425
     23 O         139.9910  146.3887  161.9177 O.2     1  UNL1       -0.2733
     24 N         139.2719  144.0153  162.6922 N.am    1  UNL1       -0.2674
     25 C         138.2659  144.4785  163.7038 C.3     1  UNL1        0.0945
     26 C         137.6585  143.2649  164.3429 C.3     1  UNL1        0.0244
     27 C         138.2892  142.0517  163.7263 C.3     1  UNL1        0.0373
     28 C         139.2863  142.5153  162.7060 C.3     1  UNL1        0.1672
     29 C         140.1467  141.6340  161.8500 C.1     1  UNL1        0.0926
     30 N         141.0072  140.7526  160.9940 N.1     1  UNL1       -0.1942
@<TRIPOS>BOND
     1     6     7    1
     2     7     8   ar
     3     8     9   ar
     4     9    10   ar
     5    10    11   ar
     6    11    12   ar
     7    12     2    1
     8     2     3    2
     9     2     4   am
    10     4     1    1
    11     1    16    1
    12    16    17    1
    13    16    18    1
    14    16    19    1
    15    19    21    1
    16    21    22    1
    17    22    23    2
    18    22    24   am
    19    24    25    1
    20    25    26    1
    21    26    27    1
    22    27    28    1
    23    28    29    1
    24    29    30    3
    25    12    13   ar
    26    13    14   ar
    27    14    15   ar
    28    15     7   ar
    29    14     9   ar
    30    28    24    1
    31     4     5    1
    32    19    20    1
@<TRIPOS>MOLECULE
*****
 30 32 0 0 0
SMALL
GASTEIGER

@<TRIPOS>ATOM
      1 C         143.2845  140.8713  161.5593 C.3     1  UNL1        0.1040
      2 C         142.9413  139.4558  163.7107 C.2     1  UNL1        0.2489
      3 O         142.7690  138.2237  162.8726 O.2     1  UNL1       -0.2700
      4 N         143.1990  140.7795  163.0541 N.am    1  UNL1       -0.2995
      5 H         143.3121  141.5881  163.6041 H       1  UNL1        0.1498
      6 C         140.7391  140.8331  171.1186 C.3     1  UNL1        0.0540
      7 C         141.3357  140.3746  169.8209 C.ar    1  UNL1        0.0824
      8 C         142.3842  139.3143  169.6583 C.ar    1  UNL1        0.0552
      9 C         142.6851  139.1804  168.1949 C.ar    1  UNL1        0.1650
     10 N         143.6330  138.2947  167.4421 N.ar    1  UNL1       -0.2248
     11 C         143.7184  138.3864  165.9474 C.ar    1  UNL1        0.1066
     12 C         142.8559  139.3640  165.2055 C.ar    1  UNL1        0.0917
     13 C         141.9079  140.2498  165.9583 C.ar    1  UNL1        0.1081
     14 N         141.8225  140.1580  167.4530 N.ar    1  UNL1       -0.2108
     15 N         140.9886  140.8960  168.4579 N.ar    1  UNL1       -0.1680
     16 C         142.4849  141.9060  160.8244 C.3     1  UNL1        0.0606
     17 C         141.3690  140.9191  160.6490 C.3     1  UNL1        0.0175
     18 C         143.6007  142.8929  160.9999 C.3     1  UNL1        0.0175
     19 N         141.6853  142.9407  160.0896 N.3     1  UNL1       -0.2905
     20 H         140.9851  142.4387  159.5436 H       1  UNL1        0.1237
     21 C         140.9565  144.0068  160.8528 C.3     1  UNL1        0.1551
     22 C         139.5308  143.7914  161.2663 C.2     1  UNL1        0.2425
     23 O         138.5282  143.2908  160.2693 O.2     1  UNL1       -0.2733
     24 N         139.1078  144.0766  162.6769 N.am    1  UNL1       -0.2674
     25 C         137.7249  143.9099  163.2335 C.3     1  UNL1        0.0945
     26 C         137.7558  144.3089  164.6791 C.3     1  UNL1        0.0244
     27 C         139.1578  144.7223  165.0160 C.3     1  UNL1        0.0373
     28 C         139.9934  144.5787  163.7786 C.3     1  UNL1        0.1672
     29 C         141.4575  144.8837  163.6631 C.1     1  UNL1        0.0926
     30 N         142.9216  145.1887  163.5476 N.1     1  UNL1       -0.1942
@<TRIPOS>BOND
     1     6     7    1
     2     7     8   ar
     3     8     9   ar
     4     9    10   ar
     5    10    11   ar
     6    11    12   ar
     7    12     2    1
     8     2     3    2
     9     2     4   am
    10     4     1    1
    11     1    16    1
    12    16    17    1
    13    16    18    1
    14    16    19    1
    15    19    21    1
    16    21    22    1
    17    22    23    2
    18    22    24   am
    19    24    25    1
    20    25    26    1
    21    26    27    1
    22    27    28    1
    23    28    29    1
    24    29    30    3
    25    12    13   ar
    26    13    14   ar
    27    14    15   ar
    28    15     7   ar
    29    14     9   ar
    30    28    24    1
    31     4     5    1
    32    19    20    1
@<TRIPOS>MOLECULE
*****
 30 32 0 0 0
SMALL
GASTEIGER

@<TRIPOS>ATOM
      1 C         140.9553  138.4988  161.9735 C.3     1  UNL1        0.1040
      2 C         139.4680  139.1663  163.9965 C.2     1  UNL1        0.2489
      3 O         138.2928  139.3292  163.0788 O.2     1  UNL1       -0.2700
      4 N         140.7993  138.7511  163.4439 N.am    1  UNL1       -0.2995
      5 H         141.5706  138.6442  164.0463 H       1  UNL1        0.1498
      6 C         140.5722  142.1437  171.1756 C.3     1  UNL1        0.0540
      7 C         140.1562  141.4174  169.9308 C.ar    1  UNL1        0.0824
      8 C         139.0763  140.3809  169.8340 C.ar    1  UNL1        0.0552
      9 C         138.9998  139.9230  168.4076 C.ar    1  UNL1        0.1650
     10 N         138.1232  138.9172  167.7221 N.ar    1  UNL1       -0.2248
     11 C         138.2793  138.6650  166.2517 C.ar    1  UNL1        0.1066
     12 C         139.3120  139.4185  165.4670 C.ar    1  UNL1        0.0917
     13 C         140.1885  140.4243  166.1525 C.ar    1  UNL1        0.1081
     14 N         140.0324  140.6765  167.6229 N.ar    1  UNL1       -0.2108
     15 N         140.7471  141.6001  168.5643 N.ar    1  UNL1       -0.1680
     16 C         142.0369  139.1968  161.2034 C.3     1  UNL1        0.0606
     17 C         143.0218  138.1538  161.6413 C.3     1  UNL1        0.0175
     18 C         141.0519  140.2399  160.7656 C.3     1  UNL1        0.0175
     19 N         143.1184  139.8949  160.4334 N.3     1  UNL1       -0.2905
     20 H         142.6551  140.4641  159.7251 H       1  UNL1        0.1237
     21 C         144.0862  140.7928  161.1455 C.3     1  UNL1        0.1551
     22 C         143.8026  142.2614  161.2590 C.2     1  UNL1        0.2425
     23 O         143.3894  143.0413  160.0461 O.2     1  UNL1       -0.2733
     24 N         143.9322  142.9500  162.5852 N.am    1  UNL1       -0.2674
     25 C         143.6829  144.4050  162.8513 C.3     1  UNL1        0.0945
     26 C         143.9305  144.6588  164.3088 C.3     1  UNL1        0.0244
     27 C         144.3327  143.3606  164.9436 C.3     1  UNL1        0.0373
     28 C         144.3338  142.3045  163.8784 C.3     1  UNL1        0.1672
     29 C         144.6763  140.8571  164.0722 C.1     1  UNL1        0.0926
     30 N         145.0189  139.4096  164.2660 N.1     1  UNL1       -0.1942
@<TRIPOS>BOND
     1     6     7    1
     2     7     8   ar
     3     8     9   ar
     4     9    10   ar
     5    10    11   ar
     6    11    12   ar
     7    12     2    1
     8     2     3    2
     9     2     4   am
    10     4     1    1
    11     1    16    1
    12    16    17    1
    13    16    18    1
    14    16    19    1
    15    19    21    1
    16    21    22    1
    17    22    23    2
    18    22    24   am
    19    24    25    1
    20    25    26    1
    21    26    27    1
    22    27    28    1
    23    28    29    1
    24    29    30    3
    25    12    13   ar
    26    13    14   ar
    27    14    15   ar
    28    15     7   ar
    29    14     9   ar
    30    28    24    1
    31     4     5    1
    32    19    20    1
