@<TRIPOS>MOLECULE
*****
 32 33 0 0 0
SMALL
GASTEIGER

@<TRIPOS>ATOM
      1 C         139.6108  140.4851  167.3651 C.3     1  UNL1        0.0813
      2 C         139.2093  139.8870  168.6808 C.2     1  UNL1        0.2439
      3 O         137.8914  139.1833  168.8138 O.2     1  UNL1       -0.2731
      4 N         140.1258  139.9926  169.8635 N.am    1  UNL1       -0.1970
      5 O         139.7243  139.3945  171.1792 O.3     1  UNL1       -0.2952
      6 H         140.9908  140.4545  169.7763 H       1  UNL1        0.1822
      7 H         138.8512  138.9807  171.0933 H       1  UNL1        0.2414
      8 C         140.3794  141.7727  167.3299 C.3     1  UNL1        0.0433
      9 C         141.8744  141.7508  167.2086 C.3     1  UNL1        0.1380
     10 C         142.5312  142.2192  165.9440 C.ar    1  UNL1        0.0047
     11 C         141.8194  142.0758  164.6315 C.ar    1  UNL1        0.0004
     12 C         142.4762  142.5443  163.3669 C.ar    1  UNL1        0.0294
     13 C         143.8449  143.1562  163.4149 C.ar    1  UNL1        0.1401
     14 F         144.5016  143.6247  162.1504 F       1  UNL1       -0.2042
     15 C         144.5567  143.2997  164.7274 C.ar    1  UNL1        0.0294
     16 C         143.8999  142.8312  165.9920 C.ar    1  UNL1        0.0004
     17 C         143.0316  142.1772  169.4953 C.3     1  UNL1        0.1745
     18 O         142.7125  141.2603  168.3518 O.3     1  UNL1       -0.3492
     19 C         139.2437  139.7957  166.0846 C.3     1  UNL1        0.0093
     20 C         138.3931  140.5010  165.0701 C.3     1  UNL1        0.0019
     21 C         138.2110  139.9106  163.7033 C.3     1  UNL1        0.0171
     22 C         139.3931  139.3649  162.9585 C.3     1  UNL1        0.0688
     23 N         139.6029  137.8824  162.8670 N.3     1  UNL1       -0.2937
     24 H         139.7291  137.6633  161.8789 H       1  UNL1        0.1236
     25 C         140.7414  137.2393  163.6020 C.3     1  UNL1        0.0956
     26 C         142.0202  137.9947  163.8128 C.ar    1  UNL1       -0.0062
     27 C         142.5211  138.2478  165.2038 C.ar    1  UNL1       -0.0006
     28 C         143.7997  139.0031  165.4146 C.ar    1  UNL1        0.0294
     29 C         144.5775  139.5052  164.2344 C.ar    1  UNL1        0.1401
     30 F         145.8562  140.2606  164.4452 F       1  UNL1       -0.2042
     31 C         144.0766  139.2521  162.8434 C.ar    1  UNL1        0.0294
     32 C         142.7979  138.4968  162.6326 C.ar    1  UNL1       -0.0006
@<TRIPOS>BOND
     1    17    18    1
     2    18     9    1
     3     9     8    1
     4     1     8    1
     5     1    19    1
     6    19    20    1
     7    20    21    1
     8    21    22    1
     9    22    23    1
    10    23    25    1
    11    25    26    1
    12    26    27   ar
    13    27    28   ar
    14    28    29   ar
    15    29    30    1
    16    29    31   ar
    17    31    32   ar
    18     1     2    1
    19     2     3    2
    20     2     4   am
    21     4     5    1
    22     9    10    1
    23    10    11   ar
    24    11    12   ar
    25    12    13   ar
    26    13    14    1
    27    13    15   ar
    28    15    16   ar
    29    32    26   ar
    30    16    10   ar
    31    23    24    1
    32     4     6    1
    33     5     7    1
@<TRIPOS>MOLECULE
*****
 32 33 0 0 0
SMALL
GASTEIGER

@<TRIPOS>ATOM
      1 C         140.6460  144.1104  164.5017 C.3     1  UNL1        0.0813
      2 C         141.4936  144.8946  163.5443 C.2     1  UNL1        0.2439
      3 O         140.8457  145.7496  162.4960 O.2     1  UNL1       -0.2731
      4 N         142.9892  144.8239  163.6353 N.am    1  UNL1       -0.1970
      5 O         143.8368  145.6081  162.6779 O.3     1  UNL1       -0.2952
      6 H         143.4144  144.2627  164.3234 H       1  UNL1        0.1822
      7 H         143.2649  146.1030  162.0705 H       1  UNL1        0.2414
      8 C         141.0791  142.7429  164.9400 C.3     1  UNL1        0.0433
      9 C         142.2076  142.5905  165.9164 C.3     1  UNL1        0.1380
     10 C         141.9179  142.4461  167.3810 C.ar    1  UNL1        0.0047
     11 C         140.5476  142.7532  167.9083 C.ar    1  UNL1        0.0004
     12 C         140.2578  142.6088  169.3730 C.ar    1  UNL1        0.0294
     13 C         141.3383  142.1572  170.3103 C.ar    1  UNL1        0.1401
     14 F         141.0486  142.0128  171.7749 F       1  UNL1       -0.2042
     15 C         142.7086  141.8501  169.7830 C.ar    1  UNL1        0.0294
     16 C         142.9984  141.9945  168.3184 C.ar    1  UNL1        0.0004
     17 C         144.1192  141.4514  164.5755 C.3     1  UNL1        0.1745
     18 O         143.6259  142.5826  165.4281 O.3     1  UNL1       -0.3492
     19 C         139.3653  144.6938  165.0208 C.3     1  UNL1        0.0093
     20 C         138.0537  144.0582  164.6664 C.3     1  UNL1        0.0019
     21 C         137.6305  143.9621  163.2305 C.3     1  UNL1        0.0171
     22 C         137.7454  142.6569  162.5005 C.3     1  UNL1        0.0688
     23 N         136.9891  141.4563  162.9871 N.3     1  UNL1       -0.2937
     24 H         136.1652  141.3664  162.3926 H       1  UNL1        0.1236
     25 C         137.6530  140.1115  163.0131 C.3     1  UNL1        0.0956
     26 C         138.7243  139.8233  164.0228 C.ar    1  UNL1       -0.0062
     27 C         140.0915  139.4069  163.5676 C.ar    1  UNL1       -0.0006
     28 C         141.1627  139.1187  164.5773 C.ar    1  UNL1        0.0294
     29 C         140.8666  139.2470  166.0422 C.ar    1  UNL1        0.1401
     30 F         141.9379  138.9588  167.0519 F       1  UNL1       -0.2042
     31 C         139.4994  139.6634  166.4974 C.ar    1  UNL1        0.0294
     32 C         138.4282  139.9516  165.4877 C.ar    1  UNL1       -0.0006
@<TRIPOS>BOND
     1    17    18    1
     2    18     9    1
     3     9     8    1
     4     1     8    1
     5     1    19    1
     6    19    20    1
     7    20    21    1
     8    21    22    1
     9    22    23    1
    10    23    25    1
    11    25    26    1
    12    26    27   ar
    13    27    28   ar
    14    28    29   ar
    15    29    30    1
    16    29    31   ar
    17    31    32   ar
    18     1     2    1
    19     2     3    2
    20     2     4   am
    21     4     5    1
    22     9    10    1
    23    10    11   ar
    24    11    12   ar
    25    12    13   ar
    26    13    14    1
    27    13    15   ar
    28    15    16   ar
    29    32    26   ar
    30    16    10   ar
    31    23    24    1
    32     4     6    1
    33     5     7    1
@<TRIPOS>MOLECULE
*****
 32 33 0 0 0
SMALL
GASTEIGER

@<TRIPOS>ATOM
      1 C         138.7197  143.6716  164.4921 C.3     1  UNL1        0.0813
      2 C         138.9535  144.7242  163.4494 C.2     1  UNL1        0.2439
      3 O         137.9251  144.9668  162.3848 O.2     1  UNL1       -0.2731
      4 N         140.2159  145.5341  163.4711 N.am    1  UNL1       -0.1970
      5 O         140.4498  146.5866  162.4284 O.3     1  UNL1       -0.2952
      6 H         140.8909  145.3748  164.1699 H       1  UNL1        0.1822
      7 H         139.6938  146.6138  161.8212 H       1  UNL1        0.2414
      8 C         139.5134  143.6873  165.7648 C.3     1  UNL1        0.0433
      9 C         140.8292  142.9706  165.8370 C.3     1  UNL1        0.1380
     10 C         141.0829  141.9768  166.9314 C.ar    1  UNL1        0.0047
     11 C         142.4253  141.9220  167.5984 C.ar    1  UNL1        0.0004
     12 C         142.6790  140.9281  168.6929 C.ar    1  UNL1        0.0294
     13 C         141.5902  139.9890  169.1203 C.ar    1  UNL1        0.1401
     14 F         141.8439  138.9951  170.2148 F       1  UNL1       -0.2042
     15 C         140.2478  140.0437  168.4533 C.ar    1  UNL1        0.0294
     16 C         139.9941  141.0376  167.3589 C.ar    1  UNL1        0.0004
     17 C         142.1932  142.2328  163.7525 C.3     1  UNL1        0.1745
     18 O         141.8913  143.2479  164.8147 O.3     1  UNL1       -0.3492
     19 C         137.6921  142.6034  164.2623 C.3     1  UNL1        0.0093
     20 C         138.0115  141.1736  164.5845 C.3     1  UNL1        0.0019
     21 C         138.9009  140.3802  163.6738 C.3     1  UNL1        0.0171
     22 C         138.3819  139.1364  163.0153 C.3     1  UNL1        0.0688
     23 N         139.1179  137.8394  163.1765 N.3     1  UNL1       -0.2937
     24 H         139.6941  137.7222  162.3430 H       1  UNL1        0.1236
     25 C         140.0179  137.6296  164.3580 C.3     1  UNL1        0.0956
     26 C         141.4279  138.1406  164.3269 C.ar    1  UNL1       -0.0062
     27 C         142.1091  138.5400  165.6022 C.ar    1  UNL1       -0.0006
     28 C         143.5190  139.0510  165.5711 C.ar    1  UNL1        0.0294
     29 C         144.2477  139.1625  164.2647 C.ar    1  UNL1        0.1401
     30 F         145.6577  139.6735  164.2336 F       1  UNL1       -0.2042
     31 C         143.5664  138.7631  162.9894 C.ar    1  UNL1        0.0294
     32 C         142.1565  138.2521  163.0206 C.ar    1  UNL1       -0.0006
@<TRIPOS>BOND
     1    17    18    1
     2    18     9    1
     3     9     8    1
     4     1     8    1
     5     1    19    1
     6    19    20    1
     7    20    21    1
     8    21    22    1
     9    22    23    1
    10    23    25    1
    11    25    26    1
    12    26    27   ar
    13    27    28   ar
    14    28    29   ar
    15    29    30    1
    16    29    31   ar
    17    31    32   ar
    18     1     2    1
    19     2     3    2
    20     2     4   am
    21     4     5    1
    22     9    10    1
    23    10    11   ar
    24    11    12   ar
    25    12    13   ar
    26    13    14    1
    27    13    15   ar
    28    15    16   ar
    29    32    26   ar
    30    16    10   ar
    31    23    24    1
    32     4     6    1
    33     5     7    1
@<TRIPOS>MOLECULE
*****
 32 33 0 0 0
SMALL
GASTEIGER

@<TRIPOS>ATOM
      1 C         139.0527  139.5784  166.2028 C.3     1  UNL1        0.0813
      2 C         138.3075  139.2070  167.4505 C.2     1  UNL1        0.2439
      3 O         137.1852  138.2139  167.3862 O.2     1  UNL1       -0.2731
      4 N         138.6846  139.8287  168.7624 N.am    1  UNL1       -0.1970
      5 O         137.9394  139.4573  170.0101 O.3     1  UNL1       -0.2952
      6 H         139.4212  140.4805  168.8046 H       1  UNL1        0.1822
      7 H         137.2509  138.8088  169.7946 H       1  UNL1        0.2414
      8 C         140.4686  139.1219  166.0109 C.3     1  UNL1        0.0433
      9 C         141.5953  139.8890  166.6373 C.3     1  UNL1        0.1380
     10 C         142.7574  140.3329  165.7993 C.ar    1  UNL1        0.0047
     11 C         143.0355  141.7956  165.6173 C.ar    1  UNL1        0.0004
     12 C         144.1977  142.2396  164.7793 C.ar    1  UNL1        0.0294
     13 C         145.0818  141.2208  164.1232 C.ar    1  UNL1        0.1401
     14 F         146.2440  141.6647  163.2852 F       1  UNL1       -0.2042
     15 C         144.8037  139.7580  164.3052 C.ar    1  UNL1        0.0294
     16 C         143.6416  139.3141  165.1432 C.ar    1  UNL1        0.0004
     17 C         142.4241  139.4470  169.0596 C.3     1  UNL1        0.1745
     18 O         141.5598  140.2120  168.1017 O.3     1  UNL1       -0.3492
     19 C         138.3820  140.4063  165.1470 C.3     1  UNL1        0.0093
     20 C         138.7213  141.8606  165.0063 C.3     1  UNL1        0.0019
     21 C         137.7372  142.8031  164.3794 C.3     1  UNL1        0.0171
     22 C         138.0919  143.5249  163.1132 C.3     1  UNL1        0.0688
     23 N         137.5792  143.0241  161.7955 N.3     1  UNL1       -0.2937
     24 H         137.3344  143.8459  161.2432 H       1  UNL1        0.1236
     25 C         138.4511  142.1642  160.9293 C.3     1  UNL1        0.0956
     26 C         138.9755  140.8600  161.4530 C.ar    1  UNL1       -0.0062
     27 C         138.0697  139.6676  161.5390 C.ar    1  UNL1       -0.0006
     28 C         138.5941  138.3636  162.0627 C.ar    1  UNL1        0.0294
     29 C         140.0245  138.2520  162.5005 C.ar    1  UNL1        0.1401
     30 F         140.5490  136.9478  163.0242 F       1  UNL1       -0.2042
     31 C         140.9303  139.4444  162.4146 C.ar    1  UNL1        0.0294
     32 C         140.4059  140.7484  161.8908 C.ar    1  UNL1       -0.0006
@<TRIPOS>BOND
     1    17    18    1
     2    18     9    1
     3     9     8    1
     4     1     8    1
     5     1    19    1
     6    19    20    1
     7    20    21    1
     8    21    22    1
     9    22    23    1
    10    23    25    1
    11    25    26    1
    12    26    27   ar
    13    27    28   ar
    14    28    29   ar
    15    29    30    1
    16    29    31   ar
    17    31    32   ar
    18     1     2    1
    19     2     3    2
    20     2     4   am
    21     4     5    1
    22     9    10    1
    23    10    11   ar
    24    11    12   ar
    25    12    13   ar
    26    13    14    1
    27    13    15   ar
    28    15    16   ar
    29    32    26   ar
    30    16    10   ar
    31    23    24    1
    32     4     6    1
    33     5     7    1
@<TRIPOS>MOLECULE
*****
 32 33 0 0 0
SMALL
GASTEIGER

@<TRIPOS>ATOM
      1 C         142.5100  143.7466  163.2629 C.3     1  UNL1        0.0813
      2 C         141.8322  144.7868  162.4212 C.2     1  UNL1        0.2439
      3 O         142.0391  144.8011  160.9357 O.2     1  UNL1       -0.2731
      4 N         140.9473  145.8126  163.0651 N.am    1  UNL1       -0.1970
      5 O         140.2694  146.8528  162.2234 O.3     1  UNL1       -0.2952
      6 H         140.8115  145.8032  164.0401 H       1  UNL1        0.1822
      7 H         140.5076  146.7210  161.2924 H       1  UNL1        0.2414
      8 C         141.7824  142.4870  163.6289 C.3     1  UNL1        0.0433
      9 C         140.7292  142.5125  164.6967 C.3     1  UNL1        0.1380
     10 C         140.8943  141.6795  165.9331 C.ar    1  UNL1        0.0047
     11 C         142.2230  141.6220  166.6268 C.ar    1  UNL1        0.0004
     12 C         142.3881  140.7888  167.8633 C.ar    1  UNL1        0.0294
     13 C         141.2245  140.0132  168.4059 C.ar    1  UNL1        0.1401
     14 F         141.3896  139.1802  169.6423 F       1  UNL1       -0.2042
     15 C         139.8958  140.0707  167.7122 C.ar    1  UNL1        0.0294
     16 C         139.7307  140.9038  166.4758 C.ar    1  UNL1        0.0004
     17 C         138.5051  143.0454  163.4640 C.3     1  UNL1        0.1745
     18 O         139.5109  143.3712  164.5281 O.3     1  UNL1       -0.3492
     19 C         143.9156  143.9659  163.7386 C.3     1  UNL1        0.0093
     20 C         144.6083  142.9075  164.5449 C.3     1  UNL1        0.0019
     21 C         145.5844  141.9799  163.8840 C.3     1  UNL1        0.0171
     22 C         145.0950  140.9352  162.9254 C.3     1  UNL1        0.0688
     23 N         144.9485  139.5124  163.3772 N.3     1  UNL1       -0.2937
     24 H         145.8657  139.2124  163.7075 H       1  UNL1        0.1236
     25 C         143.9652  139.1653  164.4555 C.3     1  UNL1        0.0956
     26 C         142.5935  138.6793  164.0916 C.ar    1  UNL1       -0.0062
     27 C         141.7123  138.0671  165.1397 C.ar    1  UNL1       -0.0006
     28 C         140.3407  137.5811  164.7758 C.ar    1  UNL1        0.0294
     29 C         139.8503  137.7074  163.3638 C.ar    1  UNL1        0.1401
     30 F         138.4786  137.2214  162.9999 F       1  UNL1       -0.2042
     31 C         140.7316  138.3196  162.3158 C.ar    1  UNL1        0.0294
     32 C         142.1032  138.8056  162.6797 C.ar    1  UNL1       -0.0006
@<TRIPOS>BOND
     1    17    18    1
     2    18     9    1
     3     9     8    1
     4     1     8    1
     5     1    19    1
     6    19    20    1
     7    20    21    1
     8    21    22    1
     9    22    23    1
    10    23    25    1
    11    25    26    1
    12    26    27   ar
    13    27    28   ar
    14    28    29   ar
    15    29    30    1
    16    29    31   ar
    17    31    32   ar
    18     1     2    1
    19     2     3    2
    20     2     4   am
    21     4     5    1
    22     9    10    1
    23    10    11   ar
    24    11    12   ar
    25    12    13   ar
    26    13    14    1
    27    13    15   ar
    28    15    16   ar
    29    32    26   ar
    30    16    10   ar
    31    23    24    1
    32     4     6    1
    33     5     7    1
@<TRIPOS>MOLECULE
*****
 32 33 0 0 0
SMALL
GASTEIGER

@<TRIPOS>ATOM
      1 C         139.1333  139.9105  166.6843 C.3     1  UNL1        0.0813
      2 C         138.4659  139.4278  167.9379 C.2     1  UNL1        0.2439
      3 O         137.3928  138.3825  167.8615 O.2     1  UNL1       -0.2731
      4 N         138.8716  139.9903  169.2679 N.am    1  UNL1       -0.1970
      5 O         138.2042  139.5075  170.5215 O.3     1  UNL1       -0.2952
      6 H         139.5759  140.6763  169.3181 H       1  UNL1        0.1822
      7 H         137.5398  138.8375  170.2967 H       1  UNL1        0.2414
      8 C         140.0164  141.1223  166.7237 C.3     1  UNL1        0.0433
      9 C         141.4513  140.9915  167.1410 C.3     1  UNL1        0.1380
     10 C         142.5470  141.2412  166.1475 C.ar    1  UNL1        0.0047
     11 C         142.8410  140.2250  165.0841 C.ar    1  UNL1        0.0004
     12 C         143.9368  140.4747  164.0906 C.ar    1  UNL1        0.0294
     13 C         144.7385  141.7405  164.1605 C.ar    1  UNL1        0.1401
     14 F         145.8342  141.9902  163.1670 F       1  UNL1       -0.2042
     15 C         144.4444  142.7567  165.2239 C.ar    1  UNL1        0.0294
     16 C         143.3487  142.5071  166.2174 C.ar    1  UNL1        0.0004
     17 C         142.5999  139.3775  168.8219 C.3     1  UNL1        0.1745
     18 O         141.7904  140.6110  168.5517 O.3     1  UNL1       -0.3492
     19 C         138.9176  139.1815  165.3913 C.3     1  UNL1        0.0093
     20 C         139.8055  138.0301  165.0223 C.3     1  UNL1        0.0019
     21 C         139.9593  137.6325  163.5842 C.3     1  UNL1        0.0171
     22 C         140.6062  138.5729  162.6111 C.3     1  UNL1        0.0688
     23 N         139.8273  139.7266  162.0521 N.3     1  UNL1       -0.2937
     24 H         138.9577  139.7793  162.5826 H       1  UNL1        0.1236
     25 C         140.4209  141.1042  162.0556 C.3     1  UNL1        0.0956
     26 C         139.9063  142.1401  163.0107 C.ar    1  UNL1       -0.0062
     27 C         138.4534  142.1613  163.3829 C.ar    1  UNL1       -0.0006
     28 C         137.9389  143.1973  164.3378 C.ar    1  UNL1        0.0294
     29 C         138.8772  144.2120  164.9206 C.ar    1  UNL1        0.1401
     30 F         138.3626  145.2480  165.8757 F       1  UNL1       -0.2042
     31 C         140.3301  144.1909  164.5485 C.ar    1  UNL1        0.0294
     32 C         140.8447  143.1549  163.5935 C.ar    1  UNL1       -0.0006
@<TRIPOS>BOND
     1    17    18    1
     2    18     9    1
     3     9     8    1
     4     1     8    1
     5     1    19    1
     6    19    20    1
     7    20    21    1
     8    21    22    1
     9    22    23    1
    10    23    25    1
    11    25    26    1
    12    26    27   ar
    13    27    28   ar
    14    28    29   ar
    15    29    30    1
    16    29    31   ar
    17    31    32   ar
    18     1     2    1
    19     2     3    2
    20     2     4   am
    21     4     5    1
    22     9    10    1
    23    10    11   ar
    24    11    12   ar
    25    12    13   ar
    26    13    14    1
    27    13    15   ar
    28    15    16   ar
    29    32    26   ar
    30    16    10   ar
    31    23    24    1
    32     4     6    1
    33     5     7    1
@<TRIPOS>MOLECULE
*****
 32 33 0 0 0
SMALL
GASTEIGER

@<TRIPOS>ATOM
      1 C         142.1164  141.9946  167.6723 C.3     1  UNL1        0.0813
      2 C         142.6645  142.0006  169.0685 C.2     1  UNL1        0.2439
      3 O         143.3145  140.7683  169.6244 O.2     1  UNL1       -0.2731
      4 N         142.5627  143.2388  169.9089 N.am    1  UNL1       -0.1970
      5 O         143.1107  143.2448  171.3052 O.3     1  UNL1       -0.2952
      6 H         142.1360  144.0476  169.5441 H       1  UNL1        0.1822
      7 H         143.4935  142.3765  171.5060 H       1  UNL1        0.2414
      8 C         140.6342  141.9404  167.4486 C.3     1  UNL1        0.0433
      9 C         139.9339  140.6156  167.3803 C.3     1  UNL1        0.1380
     10 C         139.4557  140.0872  166.0604 C.ar    1  UNL1        0.0047
     11 C         139.0966  141.0383  164.9575 C.ar    1  UNL1        0.0004
     12 C         138.6184  140.5098  163.6375 C.ar    1  UNL1        0.0294
     13 C         138.4993  139.0304  163.4206 C.ar    1  UNL1        0.1401
     14 F         138.0211  138.5020  162.1008 F       1  UNL1       -0.2042
     15 C         138.8584  138.0794  164.5236 C.ar    1  UNL1        0.0294
     16 C         139.3366  138.6077  165.8435 C.ar    1  UNL1        0.0004
     17 C         139.2328  140.5007  169.8793 C.3     1  UNL1        0.1745
     18 O         139.7119  139.8193  168.6319 O.3     1  UNL1       -0.3492
     19 C         143.0505  142.0427  166.4997 C.3     1  UNL1        0.0093
     20 C         142.7537  142.9479  165.3409 C.3     1  UNL1        0.0019
     21 C         143.8601  143.7300  164.6975 C.3     1  UNL1        0.0171
     22 C         143.8654  143.9390  163.2122 C.3     1  UNL1        0.0688
     23 N         144.9442  143.3224  162.3718 N.3     1  UNL1       -0.2937
     24 H         145.8040  143.3646  162.9190 H       1  UNL1        0.1236
     25 C         144.8051  141.9080  161.8923 C.3     1  UNL1        0.0956
     26 C         144.2403  140.8591  162.8039 C.ar    1  UNL1       -0.0062
     27 C         145.1085  140.2312  163.8535 C.ar    1  UNL1       -0.0006
     28 C         144.5437  139.1823  164.7650 C.ar    1  UNL1        0.0294
     29 C         143.1106  138.7614  164.6269 C.ar    1  UNL1        0.1401
     30 F         142.5458  137.7126  165.5384 F       1  UNL1       -0.2042
     31 C         142.2423  139.3894  163.5772 C.ar    1  UNL1        0.0294
     32 C         142.8072  140.4382  162.6658 C.ar    1  UNL1       -0.0006
@<TRIPOS>BOND
     1    17    18    1
     2    18     9    1
     3     9     8    1
     4     1     8    1
     5     1    19    1
     6    19    20    1
     7    20    21    1
     8    21    22    1
     9    22    23    1
    10    23    25    1
    11    25    26    1
    12    26    27   ar
    13    27    28   ar
    14    28    29   ar
    15    29    30    1
    16    29    31   ar
    17    31    32   ar
    18     1     2    1
    19     2     3    2
    20     2     4   am
    21     4     5    1
    22     9    10    1
    23    10    11   ar
    24    11    12   ar
    25    12    13   ar
    26    13    14    1
    27    13    15   ar
    28    15    16   ar
    29    32    26   ar
    30    16    10   ar
    31    23    24    1
    32     4     6    1
    33     5     7    1
@<TRIPOS>MOLECULE
*****
 32 33 0 0 0
SMALL
GASTEIGER

@<TRIPOS>ATOM
      1 C         142.2425  140.2299  167.6329 C.3     1  UNL1        0.0813
      2 C         141.9741  139.7497  169.0284 C.2     1  UNL1        0.2439
      3 O         143.1061  139.2676  169.8864 O.2     1  UNL1       -0.2731
      4 N         140.5738  139.7516  169.5660 N.am    1  UNL1       -0.1970
      5 O         140.3054  139.2714  170.9615 O.3     1  UNL1       -0.2952
      6 H         139.8308  140.0681  169.0029 H       1  UNL1        0.1822
      7 H         141.1390  138.9975  171.3750 H       1  UNL1        0.2414
      8 C         142.1551  141.6929  167.3134 C.3     1  UNL1        0.0433
      9 C         140.8434  142.4103  167.4357 C.3     1  UNL1        0.1380
     10 C         139.9793  142.6050  166.2252 C.ar    1  UNL1        0.0047
     11 C         139.2880  141.4297  165.6002 C.ar    1  UNL1        0.0004
     12 C         138.4239  141.6246  164.3896 C.ar    1  UNL1        0.0294
     13 C         138.2512  142.9947  163.8041 C.ar    1  UNL1        0.1401
     14 F         137.3871  143.1895  162.5936 F       1  UNL1       -0.2042
     15 C         138.9425  144.1700  164.4291 C.ar    1  UNL1        0.0294
     16 C         139.8066  143.9752  165.6396 C.ar    1  UNL1        0.0004
     17 C         141.4115  143.3055  169.8076 C.3     1  UNL1        0.1745
     18 O         140.3958  142.9328  168.7686 O.3     1  UNL1       -0.3492
     19 C         142.5982  139.2473  166.5570 C.3     1  UNL1        0.0093
     20 C         141.5223  138.6589  165.6930 C.3     1  UNL1        0.0019
     21 C         141.8575  137.5755  164.7113 C.3     1  UNL1        0.0171
     22 C         141.4768  137.7269  163.2684 C.3     1  UNL1        0.0688
     23 N         142.4631  138.2882  162.2874 N.3     1  UNL1       -0.2937
     24 H         141.9895  139.0450  161.7940 H       1  UNL1        0.1236
     25 C         143.7716  138.8391  162.7714 C.3     1  UNL1        0.0956
     26 C         143.8515  140.2502  163.2740 C.ar    1  UNL1       -0.0062
     27 C         145.1374  140.7720  163.8432 C.ar    1  UNL1       -0.0006
     28 C         145.2172  142.1830  164.3457 C.ar    1  UNL1        0.0294
     29 C         144.0110  143.0722  164.2790 C.ar    1  UNL1        0.1401
     30 F         144.0909  144.4833  164.7816 F       1  UNL1       -0.2042
     31 C         142.7251  142.5505  163.7098 C.ar    1  UNL1        0.0294
     32 C         142.6453  141.1394  163.2073 C.ar    1  UNL1       -0.0006
@<TRIPOS>BOND
     1    17    18    1
     2    18     9    1
     3     9     8    1
     4     1     8    1
     5     1    19    1
     6    19    20    1
     7    20    21    1
     8    21    22    1
     9    22    23    1
    10    23    25    1
    11    25    26    1
    12    26    27   ar
    13    27    28   ar
    14    28    29   ar
    15    29    30    1
    16    29    31   ar
    17    31    32   ar
    18     1     2    1
    19     2     3    2
    20     2     4   am
    21     4     5    1
    22     9    10    1
    23    10    11   ar
    24    11    12   ar
    25    12    13   ar
    26    13    14    1
    27    13    15   ar
    28    15    16   ar
    29    32    26   ar
    30    16    10   ar
    31    23    24    1
    32     4     6    1
    33     5     7    1
@<TRIPOS>MOLECULE
*****
 32 33 0 0 0
SMALL
GASTEIGER

@<TRIPOS>ATOM
      1 C         138.9923  144.0804  164.0621 C.3     1  UNL1        0.0813
      2 C         138.0683  143.2093  163.2638 C.2     1  UNL1        0.2439
      3 O         137.7983  143.5250  161.8225 O.2     1  UNL1       -0.2731
      4 N         137.4142  142.0224  163.9068 N.am    1  UNL1       -0.1970
      5 O         136.4902  141.1513  163.1085 O.3     1  UNL1       -0.2952
      6 H         137.5914  141.8152  164.8528 H       1  UNL1        0.1822
      7 H         136.4262  141.4924  162.2027 H       1  UNL1        0.2414
      8 C         139.5750  145.3179  163.4465 C.3     1  UNL1        0.0433
      9 C         140.7205  145.2089  162.4842 C.3     1  UNL1        0.1380
     10 C         141.9692  144.4804  162.8841 C.ar    1  UNL1        0.0047
     11 C         142.8685  145.0558  163.9377 C.ar    1  UNL1        0.0004
     12 C         144.1172  144.3272  164.3376 C.ar    1  UNL1        0.0294
     13 C         144.4667  143.0232  163.6838 C.ar    1  UNL1        0.1401
     14 F         145.7154  142.2947  164.0837 F       1  UNL1       -0.2042
     15 C         143.5674  142.4478  162.6302 C.ar    1  UNL1        0.0294
     16 C         142.3187  143.1763  162.2303 C.ar    1  UNL1        0.0004
     17 C         140.2924  144.9745  159.9324 C.3     1  UNL1        0.1745
     18 O         140.6173  145.8284  161.1220 O.3     1  UNL1       -0.3492
     19 C         139.3336  143.7141  165.4760 C.3     1  UNL1        0.0093
     20 C         140.5891  142.9477  165.7701 C.3     1  UNL1        0.0019
     21 C         140.7360  141.5352  165.2872 C.3     1  UNL1        0.0171
     22 C         142.0382  140.8128  165.4669 C.3     1  UNL1        0.0688
     23 N         142.1160  139.6218  166.3755 N.3     1  UNL1       -0.2937
     24 H         142.8312  139.0044  165.9912 H       1  UNL1        0.1236
     25 C         142.4390  139.8068  167.8286 C.3     1  UNL1        0.0956
     26 C         141.6135  140.7363  168.6680 C.ar    1  UNL1       -0.0062
     27 C         140.2553  140.3119  169.1425 C.ar    1  UNL1       -0.0006
     28 C         139.4298  141.2414  169.9818 C.ar    1  UNL1        0.0294
     29 C         139.9626  142.5953  170.3467 C.ar    1  UNL1        0.1401
     30 F         139.1371  143.5249  171.1862 F       1  UNL1       -0.2042
     31 C         141.3208  143.0197  169.8723 C.ar    1  UNL1        0.0294
     32 C         142.1462  142.0902  169.0329 C.ar    1  UNL1       -0.0006
@<TRIPOS>BOND
     1    17    18    1
     2    18     9    1
     3     9     8    1
     4     1     8    1
     5     1    19    1
     6    19    20    1
     7    20    21    1
     8    21    22    1
     9    22    23    1
    10    23    25    1
    11    25    26    1
    12    26    27   ar
    13    27    28   ar
    14    28    29   ar
    15    29    30    1
    16    29    31   ar
    17    31    32   ar
    18     1     2    1
    19     2     3    2
    20     2     4   am
    21     4     5    1
    22     9    10    1
    23    10    11   ar
    24    11    12   ar
    25    12    13   ar
    26    13    14    1
    27    13    15   ar
    28    15    16   ar
    29    32    26   ar
    30    16    10   ar
    31    23    24    1
    32     4     6    1
    33     5     7    1
