@<TRIPOS>MOLECULE
*****
 35 40 0 0 0
SMALL
GASTEIGER

@<TRIPOS>ATOM
      1 C         141.1730  139.7635  159.2917 C.ar    1  UNL1        0.1233
      2 C         141.4015  139.5555  160.7596 C.ar    1  UNL1        0.1180
      3 N         141.2712  140.8850  161.4419 N.ar    1  UNL1       -0.2233
      4 N         140.9621  141.9145  160.3958 N.ar    1  UNL1       -0.0634
      5 N         140.9014  141.2215  159.0669 N.ar    1  UNL1       -0.1287
      6 C         141.4232  141.1400  162.9123 C.3     1  UNL1        0.1834
      7 C         142.7755  141.6158  163.3538 C.3     1  UNL1        0.0386
      8 C         143.2413  141.9547  164.7388 C.3     1  UNL1        0.0301
      9 C         142.4701  141.9014  166.0243 C.ar    1  UNL1       -0.0084
     10 C         143.3156  142.3249  167.1886 C.ar    1  UNL1       -0.0030
     11 C         142.7334  142.3432  168.5709 C.ar    1  UNL1       -0.0002
     12 C         141.3058  141.9379  168.7888 C.ar    1  UNL1        0.0013
     13 C         140.4603  141.5143  167.6245 C.ar    1  UNL1        0.0146
     14 C         141.0424  141.4961  166.2422 C.ar    1  UNL1        0.0499
     15 N         140.0335  141.0440  165.2285 N.am    1  UNL1       -0.2574
     16 C         140.2028  140.8855  163.7465 C.2     1  UNL1        0.2518
     17 O         138.9919  140.4096  163.0002 O.2     1  UNL1       -0.2724
     18 C         138.6754  140.7056  165.7682 C.3     1  UNL1        0.0982
     19 C         138.3260  139.2806  166.0802 C.3     1  UNL1        0.0202
     20 C         137.6220  138.2744  166.9414 C.3     1  UNL1        0.0018
     21 C         138.4249  137.8188  165.7593 C.3     1  UNL1        0.0018
     22 C         139.9789  137.2111  156.4973 C.ar    1  UNL1        0.1547
     23 C         139.9421  138.2744  157.5546 C.ar    1  UNL1        0.0400
     24 C         141.2097  138.7002  158.2344 C.ar    1  UNL1        0.0241
     25 C         142.5139  138.0626  157.8568 C.ar    1  UNL1        0.0033
     26 C         142.5505  136.9993  156.7995 C.ar    1  UNL1        0.0207
     27 C         141.2831  136.5735  156.1198 C.ar    1  UNL1        0.0994
     28 N         141.3198  135.5101  155.0624 N.ar    1  UNL1       -0.2839
     29 C         141.3125  135.7400  153.5801 C.ar    1  UNL1        0.1826
     30 N         141.3585  134.4021  152.9034 N.ar    1  UNL1       -0.2280
     31 C         141.3941  133.3454  153.9673 C.ar    1  UNL1        0.0786
     32 C         141.4448  131.8640  153.7374 C.3     1  UNL1        0.0538
     33 C         141.3702  134.0302  155.3017 C.ar    1  UNL1        0.0963
     34 C         138.1953  137.5586  154.6404 C.3     1  UNL1        0.2525
     35 O         138.7113  136.7853  155.8176 O.3     1  UNL1       -0.4700
@<TRIPOS>BOND
     1    34    35    1
     2    35    22    1
     3    22    23   ar
     4    23    24   ar
     5    24     1    1
     6     1     2   ar
     7     2     3   ar
     8     3     6    1
     9     6     7    1
    10     7     8    1
    11     8     9    1
    12     9    10   ar
    13    10    11   ar
    14    11    12   ar
    15    12    13   ar
    16    13    14   ar
    17    14    15    1
    18    15    18    1
    19    18    19    1
    20    19    20    1
    21    20    21    1
    22    15    16   am
    23    16    17    2
    24     3     4   ar
    25     4     5   ar
    26    24    25   ar
    27    25    26   ar
    28    26    27   ar
    29    27    28    1
    30    28    29   ar
    31    29    30   ar
    32    30    31   ar
    33    31    32    1
    34    31    33   ar
    35    27    22   ar
    36    33    28   ar
    37     5     1   ar
    38    16     6    1
    39    14     9   ar
    40    21    19    1
@<TRIPOS>MOLECULE
*****
 35 40 0 0 0
SMALL
GASTEIGER

@<TRIPOS>ATOM
      1 C         142.0518  138.7311  159.3649 C.ar    1  UNL1        0.1233
      2 C         141.7435  138.3979  160.7946 C.ar    1  UNL1        0.1180
      3 N         141.9843  139.6274  161.6194 N.ar    1  UNL1       -0.2233
      4 N         142.4414  140.7205  160.6995 N.ar    1  UNL1       -0.0634
      5 N         142.4832  140.1665  159.3062 N.ar    1  UNL1       -0.1287
      6 C         141.8002  139.7435  163.1036 C.3     1  UNL1        0.1834
      7 C         142.9424  139.2502  163.9416 C.3     1  UNL1        0.0386
      8 C         143.0646  139.2291  165.4364 C.3     1  UNL1        0.0301
      9 C         142.0751  139.6961  166.4625 C.ar    1  UNL1       -0.0084
     10 C         142.5939  139.4949  167.8555 C.ar    1  UNL1       -0.0030
     11 C         141.7563  139.8971  169.0330 C.ar    1  UNL1       -0.0002
     12 C         140.4000  140.5005  168.8176 C.ar    1  UNL1        0.0013
     13 C         139.8813  140.7016  167.4247 C.ar    1  UNL1        0.0146
     14 C         140.7188  140.2994  166.2471 C.ar    1  UNL1        0.0499
     15 N         140.0171  140.5849  164.9524 N.am    1  UNL1       -0.2574
     16 C         140.4983  140.3375  163.5534 C.2     1  UNL1        0.2518
     17 O         139.5527  140.7368  162.4597 O.2     1  UNL1       -0.2724
     18 C         138.6539  141.1990  165.0727 C.3     1  UNL1        0.0982
     19 C         138.4707  142.6698  164.8419 C.3     1  UNL1        0.0202
     20 C         138.8939  144.0867  165.0931 C.3     1  UNL1        0.0018
     21 C         137.7303  143.8002  164.1911 C.3     1  UNL1        0.0018
     22 C         142.8708  135.7810  156.8400 C.ar    1  UNL1        0.1547
     23 C         142.9755  136.7185  158.0061 C.ar    1  UNL1        0.0400
     24 C         141.9472  137.7935  158.1988 C.ar    1  UNL1        0.0241
     25 C         140.8142  137.9308  157.2254 C.ar    1  UNL1        0.0033
     26 C         140.7096  136.9931  156.0593 C.ar    1  UNL1        0.0207
     27 C         141.7378  135.9183  155.8666 C.ar    1  UNL1        0.0994
     28 N         141.6331  134.9806  154.7004 N.ar    1  UNL1       -0.2839
     29 C         141.8527  135.3370  153.2599 C.ar    1  UNL1        0.1826
     30 N         141.6457  134.0986  152.4393 N.ar    1  UNL1       -0.2280
     31 C         141.2982  132.9768  153.3724 C.ar    1  UNL1        0.0786
     32 C         141.0092  131.5589  152.9775 C.3     1  UNL1        0.0538
     33 C         141.2904  133.5219  154.7699 C.ar    1  UNL1        0.0963
     34 C         143.9206  133.5163  157.5605 C.3     1  UNL1        0.2525
     35 O         143.8991  134.7060  156.6472 O.3     1  UNL1       -0.4700
@<TRIPOS>BOND
     1    34    35    1
     2    35    22    1
     3    22    23   ar
     4    23    24   ar
     5    24     1    1
     6     1     2   ar
     7     2     3   ar
     8     3     6    1
     9     6     7    1
    10     7     8    1
    11     8     9    1
    12     9    10   ar
    13    10    11   ar
    14    11    12   ar
    15    12    13   ar
    16    13    14   ar
    17    14    15    1
    18    15    18    1
    19    18    19    1
    20    19    20    1
    21    20    21    1
    22    15    16   am
    23    16    17    2
    24     3     4   ar
    25     4     5   ar
    26    24    25   ar
    27    25    26   ar
    28    26    27   ar
    29    27    28    1
    30    28    29   ar
    31    29    30   ar
    32    30    31   ar
    33    31    32    1
    34    31    33   ar
    35    27    22   ar
    36    33    28   ar
    37     5     1   ar
    38    16     6    1
    39    14     9   ar
    40    21    19    1
@<TRIPOS>MOLECULE
*****
 35 40 0 0 0
SMALL
GASTEIGER

@<TRIPOS>ATOM
      1 C         142.4508  138.4063  158.3793 C.ar    1  UNL1        0.1233
      2 C         141.4613  138.9980  159.3390 C.ar    1  UNL1        0.1180
      3 N         142.1470  140.1000  160.0910 N.ar    1  UNL1       -0.2233
      4 N         143.5601  140.1893  159.5961 N.ar    1  UNL1       -0.0634
      5 N         143.7479  139.1425  158.5382 N.ar    1  UNL1       -0.1287
      6 C         141.5281  140.9613  161.1517 C.3     1  UNL1        0.1834
      7 C         141.1104  142.3338  160.7137 C.3     1  UNL1        0.0386
      8 C         140.4702  143.4202  161.5260 C.3     1  UNL1        0.0301
      9 C         140.0895  143.4026  162.9768 C.ar    1  UNL1       -0.0084
     10 C         139.4708  144.7028  163.3969 C.ar    1  UNL1       -0.0030
     11 C         139.0176  144.8945  164.8139 C.ar    1  UNL1       -0.0002
     12 C         139.1832  143.7860  165.8107 C.ar    1  UNL1        0.0013
     13 C         139.8020  142.4857  165.3906 C.ar    1  UNL1        0.0146
     14 C         140.2551  142.2941  163.9737 C.ar    1  UNL1        0.0499
     15 N         140.8422  140.9294  163.7659 N.am    1  UNL1       -0.2574
     16 C         141.4088  140.3363  162.5100 C.2     1  UNL1        0.2518
     17 O         141.9241  138.9326  162.6281 O.2     1  UNL1       -0.2724
     18 C         140.8660  140.0404  164.9738 C.3     1  UNL1        0.0982
     19 C         139.7366  139.0855  165.2246 C.3     1  UNL1        0.0202
     20 C         138.4543  138.7453  165.9244 C.3     1  UNL1        0.0018
     21 C         139.0631  137.7719  164.9592 C.3     1  UNL1        0.0018
     22 C         142.8884  134.9986  156.3930 C.ar    1  UNL1        0.1547
     23 C         143.1502  136.1281  157.3445 C.ar    1  UNL1        0.0400
     24 C         142.1890  137.2766  157.4278 C.ar    1  UNL1        0.0241
     25 C         140.9659  137.2955  156.5596 C.ar    1  UNL1        0.0033
     26 C         140.7041  136.1659  155.6081 C.ar    1  UNL1        0.0207
     27 C         141.6653  135.0174  155.5248 C.ar    1  UNL1        0.0994
     28 N         141.4035  133.8878  154.5732 N.ar    1  UNL1       -0.2839
     29 C         141.4776  133.9602  153.0768 C.ar    1  UNL1        0.1826
     30 N         141.1415  132.6046  152.5299 N.ar    1  UNL1       -0.2280
     31 C         140.8595  131.6943  153.6882 C.ar    1  UNL1        0.0786
     32 C         140.4820  130.2453  153.5993 C.3     1  UNL1        0.0538
     33 C         141.0214  132.4873  154.9511 C.ar    1  UNL1        0.0963
     34 C         144.2694  133.1313  157.5575 C.3     1  UNL1        0.2525
     35 O         143.8496  133.8500  156.3097 O.3     1  UNL1       -0.4700
@<TRIPOS>BOND
     1    34    35    1
     2    35    22    1
     3    22    23   ar
     4    23    24   ar
     5    24     1    1
     6     1     2   ar
     7     2     3   ar
     8     3     6    1
     9     6     7    1
    10     7     8    1
    11     8     9    1
    12     9    10   ar
    13    10    11   ar
    14    11    12   ar
    15    12    13   ar
    16    13    14   ar
    17    14    15    1
    18    15    18    1
    19    18    19    1
    20    19    20    1
    21    20    21    1
    22    15    16   am
    23    16    17    2
    24     3     4   ar
    25     4     5   ar
    26    24    25   ar
    27    25    26   ar
    28    26    27   ar
    29    27    28    1
    30    28    29   ar
    31    29    30   ar
    32    30    31   ar
    33    31    32    1
    34    31    33   ar
    35    27    22   ar
    36    33    28   ar
    37     5     1   ar
    38    16     6    1
    39    14     9   ar
    40    21    19    1
@<TRIPOS>MOLECULE
*****
 35 40 0 0 0
SMALL
GASTEIGER

@<TRIPOS>ATOM
      1 C         142.3215  138.2746  158.0366 C.ar    1  UNL1        0.1233
      2 C         141.3300  138.8102  159.0265 C.ar    1  UNL1        0.1180
      3 N         141.9281  140.0258  159.6704 N.ar    1  UNL1       -0.2233
      4 N         143.2893  140.2415  159.0785 N.ar    1  UNL1       -0.0634
      5 N         143.5325  139.1592  158.0687 N.ar    1  UNL1       -0.1287
      6 C         141.2789  140.8763  160.7217 C.3     1  UNL1        0.1834
      7 C         140.0507  141.6211  160.2894 C.3     1  UNL1        0.0386
      8 C         139.1842  142.5430  161.0950 C.3     1  UNL1        0.0301
      9 C         139.3316  142.9480  162.5318 C.ar    1  UNL1       -0.0084
     10 C         138.2442  143.8931  162.9491 C.ar    1  UNL1       -0.0030
     11 C         138.2073  144.4211  164.3526 C.ar    1  UNL1       -0.0002
     12 C         139.2579  144.0041  165.3387 C.ar    1  UNL1        0.0013
     13 C         140.3453  143.0590  164.9213 C.ar    1  UNL1        0.0146
     14 C         140.3822  142.5310  163.5178 C.ar    1  UNL1        0.0499
     15 N         141.5447  141.6060  163.3107 N.am    1  UNL1       -0.2574
     16 C         141.9439  140.8695  162.0663 C.2     1  UNL1        0.2518
     17 O         143.1699  140.0132  162.1818 O.2     1  UNL1       -0.2724
     18 C         142.4245  141.3886  164.5060 C.3     1  UNL1        0.0982
     19 C         143.6980  142.1678  164.6516 C.3     1  UNL1        0.0202
     20 C         145.1605  142.3324  164.3620 C.3     1  UNL1        0.0018
     21 C         144.4411  143.3527  165.1935 C.3     1  UNL1        0.0018
     22 C         142.9092  134.7108  156.3924 C.ar    1  UNL1        0.1547
     23 C         143.0959  135.9187  157.2618 C.ar    1  UNL1        0.0400
     24 C         142.1349  137.0666  157.1672 C.ar    1  UNL1        0.0241
     25 C         140.9872  137.0064  156.2033 C.ar    1  UNL1        0.0033
     26 C         140.8005  135.7984  155.3339 C.ar    1  UNL1        0.0207
     27 C         141.7615  134.6506  155.4285 C.ar    1  UNL1        0.0994
     28 N         141.5748  133.4425  154.5591 N.ar    1  UNL1       -0.2839
     29 C         141.9427  133.3345  153.1089 C.ar    1  UNL1        0.1826
     30 N         141.5827  131.9557  152.6409 N.ar    1  UNL1       -0.2280
     31 C         140.9922  131.2115  153.8017 C.ar    1  UNL1        0.0786
     32 C         140.4941  129.7968  153.7807 C.3     1  UNL1        0.0538
     33 C         140.9874  132.1304  154.9872 C.ar    1  UNL1        0.0963
     34 C         144.4677  133.1923  157.8120 C.3     1  UNL1        0.2525
     35 O         143.8702  133.5629  156.4870 O.3     1  UNL1       -0.4700
@<TRIPOS>BOND
     1    34    35    1
     2    35    22    1
     3    22    23   ar
     4    23    24   ar
     5    24     1    1
     6     1     2   ar
     7     2     3   ar
     8     3     6    1
     9     6     7    1
    10     7     8    1
    11     8     9    1
    12     9    10   ar
    13    10    11   ar
    14    11    12   ar
    15    12    13   ar
    16    13    14   ar
    17    14    15    1
    18    15    18    1
    19    18    19    1
    20    19    20    1
    21    20    21    1
    22    15    16   am
    23    16    17    2
    24     3     4   ar
    25     4     5   ar
    26    24    25   ar
    27    25    26   ar
    28    26    27   ar
    29    27    28    1
    30    28    29   ar
    31    29    30   ar
    32    30    31   ar
    33    31    32    1
    34    31    33   ar
    35    27    22   ar
    36    33    28   ar
    37     5     1   ar
    38    16     6    1
    39    14     9   ar
    40    21    19    1
@<TRIPOS>MOLECULE
*****
 35 40 0 0 0
SMALL
GASTEIGER

@<TRIPOS>ATOM
      1 C         142.9075  137.3021  157.4918 C.ar    1  UNL1        0.1233
      2 C         142.6122  137.5971  158.9326 C.ar    1  UNL1        0.1180
      3 N         143.0696  138.9959  159.2226 N.ar    1  UNL1       -0.2233
      4 N         143.6476  139.5655  157.9610 N.ar    1  UNL1       -0.0634
      5 N         143.5474  138.5187  156.8914 N.ar    1  UNL1       -0.1287
      6 C         142.9670  139.7013  160.5424 C.3     1  UNL1        0.1834
      7 C         144.1383  139.5314  161.4639 C.3     1  UNL1        0.0386
      8 C         144.3385  140.1016  162.8368 C.3     1  UNL1        0.0301
      9 C         143.4169  140.9825  163.6273 C.ar    1  UNL1       -0.0084
     10 C         144.0028  141.3292  164.9639 C.ar    1  UNL1       -0.0030
     11 C         143.2392  142.2042  165.9132 C.ar    1  UNL1       -0.0002
     12 C         141.8898  142.7325  165.5259 C.ar    1  UNL1        0.0013
     13 C         141.3039  142.3857  164.1894 C.ar    1  UNL1        0.0146
     14 C         142.0675  141.5107  163.2400 C.ar    1  UNL1        0.0499
     15 N         141.3064  141.2885  161.9667 N.am    1  UNL1       -0.2574
     16 C         141.7066  140.4833  160.7661 C.2     1  UNL1        0.2518
     17 O         140.7156  140.4565  159.6405 O.2     1  UNL1       -0.2724
     18 C         139.9679  141.9605  161.8829 C.3     1  UNL1        0.0982
     19 C         138.7296  141.2194  162.2920 C.3     1  UNL1        0.0202
     20 C         137.8486  140.0093  162.1961 C.3     1  UNL1        0.0018
     21 C         137.4659  141.1461  163.0967 C.3     1  UNL1        0.0018
     22 C         142.9893  133.4606  156.4989 C.ar    1  UNL1        0.1547
     23 C         143.2825  134.7463  157.2137 C.ar    1  UNL1        0.0400
     24 C         142.6144  136.0164  156.7770 C.ar    1  UNL1        0.0241
     25 C         141.6532  136.0007  155.6256 C.ar    1  UNL1        0.0033
     26 C         141.3601  134.7149  154.9108 C.ar    1  UNL1        0.0207
     27 C         142.0281  133.4450  155.3475 C.ar    1  UNL1        0.0994
     28 N         141.7349  132.1592  154.6326 N.ar    1  UNL1       -0.2839
     29 C         142.4491  131.6424  153.4190 C.ar    1  UNL1        0.1826
     30 N         141.8316  130.3284  153.0423 N.ar    1  UNL1       -0.2280
     31 C         140.7359  130.0329  154.0231 C.ar    1  UNL1        0.0786
     32 C         139.8546  128.8191  154.0213 C.3     1  UNL1        0.0538
     33 C         140.6761  131.1644  155.0060 C.ar    1  UNL1        0.0963
     34 C         144.9631  131.7806  156.3218 C.3     1  UNL1        0.2525
     35 O         143.6574  132.1906  156.9356 O.3     1  UNL1       -0.4700
@<TRIPOS>BOND
     1    34    35    1
     2    35    22    1
     3    22    23   ar
     4    23    24   ar
     5    24     1    1
     6     1     2   ar
     7     2     3   ar
     8     3     6    1
     9     6     7    1
    10     7     8    1
    11     8     9    1
    12     9    10   ar
    13    10    11   ar
    14    11    12   ar
    15    12    13   ar
    16    13    14   ar
    17    14    15    1
    18    15    18    1
    19    18    19    1
    20    19    20    1
    21    20    21    1
    22    15    16   am
    23    16    17    2
    24     3     4   ar
    25     4     5   ar
    26    24    25   ar
    27    25    26   ar
    28    26    27   ar
    29    27    28    1
    30    28    29   ar
    31    29    30   ar
    32    30    31   ar
    33    31    32    1
    34    31    33   ar
    35    27    22   ar
    36    33    28   ar
    37     5     1   ar
    38    16     6    1
    39    14     9   ar
    40    21    19    1
@<TRIPOS>MOLECULE
*****
 35 40 0 0 0
SMALL
GASTEIGER

@<TRIPOS>ATOM
      1 C         143.3334  139.7634  160.1473 C.ar    1  UNL1        0.1233
      2 C         143.0842  140.3478  161.5061 C.ar    1  UNL1        0.1180
      3 N         142.5207  139.2664  162.3796 N.ar    1  UNL1       -0.2233
      4 N         142.4216  138.0137  161.5607 N.ar    1  UNL1       -0.0634
      5 N         142.9239  138.3208  160.1811 N.ar    1  UNL1       -0.1287
      6 C         142.1255  139.4122  163.8193 C.3     1  UNL1        0.1834
      7 C         143.2156  139.1705  164.8210 C.3     1  UNL1        0.0386
      8 C         143.1418  139.2373  166.3177 C.3     1  UNL1        0.0301
      9 C         141.9600  139.5623  167.1824 C.ar    1  UNL1       -0.0084
     10 C         142.3179  139.5193  168.6384 C.ar    1  UNL1       -0.0030
     11 C         141.2756  139.8149  169.6759 C.ar    1  UNL1       -0.0002
     12 C         139.8756  140.1534  169.2574 C.ar    1  UNL1        0.0013
     13 C         139.5177  140.1964  167.8013 C.ar    1  UNL1        0.0146
     14 C         140.5599  139.9009  166.7639 C.ar    1  UNL1        0.0499
     15 N         139.9960  139.9980  165.3773 N.am    1  UNL1       -0.2574
     16 C         140.6926  139.7805  164.0668 C.2     1  UNL1        0.2518
     17 O         139.8444  139.9543  162.8420 O.2     1  UNL1       -0.2724
     18 C         138.5430  140.3605  165.2896 C.3     1  UNL1        0.0982
     19 C         138.1298  141.6541  164.6525 C.3     1  UNL1        0.0202
     20 C         137.9631  143.1429  164.7252 C.3     1  UNL1        0.0018
     21 C         137.5809  142.4056  163.4762 C.3     1  UNL1        0.0018
     22 C         144.5001  140.5532  156.4373 C.ar    1  UNL1        0.1547
     23 C         143.9398  139.8232  157.6217 C.ar    1  UNL1        0.0400
     24 C         143.8938  140.4934  158.9628 C.ar    1  UNL1        0.0241
     25 C         144.4081  141.8938  159.1195 C.ar    1  UNL1        0.0033
     26 C         144.9685  142.6238  157.9350 C.ar    1  UNL1        0.0207
     27 C         145.0145  141.9535  156.5939 C.ar    1  UNL1        0.0994
     28 N         145.5749  142.6837  155.4094 N.ar    1  UNL1       -0.2839
     29 C         144.7786  143.3563  154.3307 C.ar    1  UNL1        0.1826
     30 N         145.7415  143.9576  153.3504 N.ar    1  UNL1       -0.2280
     31 C         147.1329  143.6567  153.8231 C.ar    1  UNL1        0.0786
     32 C         148.4041  144.0704  153.1428 C.3     1  UNL1        0.0538
     33 C         147.0299  142.8693  155.0957 C.ar    1  UNL1        0.0963
     34 C         144.6988  138.3934  155.0070 C.3     1  UNL1        0.2525
     35 O         144.5462  139.8829  155.0962 O.3     1  UNL1       -0.4700
@<TRIPOS>BOND
     1    34    35    1
     2    35    22    1
     3    22    23   ar
     4    23    24   ar
     5    24     1    1
     6     1     2   ar
     7     2     3   ar
     8     3     6    1
     9     6     7    1
    10     7     8    1
    11     8     9    1
    12     9    10   ar
    13    10    11   ar
    14    11    12   ar
    15    12    13   ar
    16    13    14   ar
    17    14    15    1
    18    15    18    1
    19    18    19    1
    20    19    20    1
    21    20    21    1
    22    15    16   am
    23    16    17    2
    24     3     4   ar
    25     4     5   ar
    26    24    25   ar
    27    25    26   ar
    28    26    27   ar
    29    27    28    1
    30    28    29   ar
    31    29    30   ar
    32    30    31   ar
    33    31    32    1
    34    31    33   ar
    35    27    22   ar
    36    33    28   ar
    37     5     1   ar
    38    16     6    1
    39    14     9   ar
    40    21    19    1
@<TRIPOS>MOLECULE
*****
 35 40 0 0 0
SMALL
GASTEIGER

@<TRIPOS>ATOM
      1 C         143.0117  138.6643  159.8735 C.ar    1  UNL1        0.1233
      2 C         142.5467  137.4444  159.1347 C.ar    1  UNL1        0.1180
      3 N         142.9879  137.5711  157.7066 N.ar    1  UNL1       -0.2233
      4 N         143.7255  138.8692  157.5628 N.ar    1  UNL1       -0.0634
      5 N         143.7402  139.5449  158.9020 N.ar    1  UNL1       -0.1287
      6 C         142.7358  136.5745  156.6142 C.3     1  UNL1        0.1834
      7 C         143.3885  135.2356  156.7913 C.3     1  UNL1        0.0386
      8 C         143.3309  134.0403  155.8871 C.3     1  UNL1        0.0301
      9 C         142.6064  133.8884  154.5824 C.ar    1  UNL1       -0.0084
     10 C         142.8110  132.5223  153.9977 C.ar    1  UNL1       -0.0030
     11 C         142.1697  132.1624  152.6904 C.ar    1  UNL1       -0.0002
     12 C         141.3238  133.1686  151.9677 C.ar    1  UNL1        0.0013
     13 C         141.1192  134.5347  152.5525 C.ar    1  UNL1        0.0146
     14 C         141.7605  134.8946  153.8598 C.ar    1  UNL1        0.0499
     15 N         141.4303  136.3010  154.2634 N.am    1  UNL1       -0.2574
     16 C         141.8643  137.0487  155.4892 C.2     1  UNL1        0.2518
     17 O         141.3602  138.4567  155.6053 O.2     1  UNL1       -0.2724
     18 C         140.5495  137.0602  153.3158 C.3     1  UNL1        0.0982
     19 C         139.0892  137.2240  153.6170 C.3     1  UNL1        0.0202
     20 C         137.6633  137.2600  153.1531 C.3     1  UNL1        0.0018
     21 C         137.9860  137.4716  154.6026 C.3     1  UNL1        0.0018
     22 C         143.3397  140.3317  163.4598 C.ar    1  UNL1        0.1547
     23 C         143.5640  140.0432  162.0050 C.ar    1  UNL1        0.0400
     24 C         142.7874  138.9528  161.3282 C.ar    1  UNL1        0.0241
     25 C         141.7865  138.1510  162.1063 C.ar    1  UNL1        0.0033
     26 C         141.5623  138.4396  163.5611 C.ar    1  UNL1        0.0207
     27 C         142.3388  139.5299  164.2378 C.ar    1  UNL1        0.0994
     28 N         142.1145  139.8184  165.6926 N.ar    1  UNL1       -0.2839
     29 C         141.2365  140.8982  166.2523 C.ar    1  UNL1        0.1826
     30 N         141.3082  140.8249  167.7487 N.ar    1  UNL1       -0.2280
     31 C         142.2306  139.6999  168.1140 C.ar    1  UNL1        0.0786
     32 C         142.5913  139.2719  169.5057 C.3     1  UNL1        0.0538
     33 C         142.7289  139.0778  166.8433 C.ar    1  UNL1        0.0963
     34 C         145.5734  141.6056  163.8311 C.3     1  UNL1        0.2525
     35 O         144.1164  141.4220  164.1365 O.3     1  UNL1       -0.4700
@<TRIPOS>BOND
     1    34    35    1
     2    35    22    1
     3    22    23   ar
     4    23    24   ar
     5    24     1    1
     6     1     2   ar
     7     2     3   ar
     8     3     6    1
     9     6     7    1
    10     7     8    1
    11     8     9    1
    12     9    10   ar
    13    10    11   ar
    14    11    12   ar
    15    12    13   ar
    16    13    14   ar
    17    14    15    1
    18    15    18    1
    19    18    19    1
    20    19    20    1
    21    20    21    1
    22    15    16   am
    23    16    17    2
    24     3     4   ar
    25     4     5   ar
    26    24    25   ar
    27    25    26   ar
    28    26    27   ar
    29    27    28    1
    30    28    29   ar
    31    29    30   ar
    32    30    31   ar
    33    31    32    1
    34    31    33   ar
    35    27    22   ar
    36    33    28   ar
    37     5     1   ar
    38    16     6    1
    39    14     9   ar
    40    21    19    1
@<TRIPOS>MOLECULE
*****
 35 40 0 0 0
SMALL
GASTEIGER

@<TRIPOS>ATOM
      1 C         142.6985  138.8574  160.2217 C.ar    1  UNL1        0.1233
      2 C         141.9634  139.2606  161.4655 C.ar    1  UNL1        0.1180
      3 N         142.9706  139.4349  162.5633 N.ar    1  UNL1       -0.2233
      4 N         144.3282  139.1393  161.9979 N.ar    1  UNL1       -0.0634
      5 N         144.1600  138.7824  160.5507 N.ar    1  UNL1       -0.1287
      6 C         142.6726  139.8345  163.9780 C.3     1  UNL1        0.1834
      7 C         142.9963  138.8106  165.0254 C.3     1  UNL1        0.0386
      8 C         142.8176  138.9046  166.5118 C.3     1  UNL1        0.0301
      9 C         142.2711  140.0455  167.3179 C.ar    1  UNL1       -0.0084
     10 C         142.2644  139.7272  168.7836 C.ar    1  UNL1       -0.0030
     11 C         141.7550  140.7377  169.7682 C.ar    1  UNL1       -0.0002
     12 C         141.2522  142.0665  169.2869 C.ar    1  UNL1        0.0013
     13 C         141.2590  142.3848  167.8212 C.ar    1  UNL1        0.0146
     14 C         141.7684  141.3743  166.8366 C.ar    1  UNL1        0.0499
     15 N         141.6880  141.8903  165.4304 N.am    1  UNL1       -0.2574
     16 C         142.0904  141.2051  164.1582 C.2     1  UNL1        0.2518
     17 O         141.8831  141.9948  162.8999 O.2     1  UNL1       -0.2724
     18 C         141.1316  143.2747  165.2761 C.3     1  UNL1        0.0982
     19 C         139.6660  143.4702  165.0227 C.3     1  UNL1        0.0202
     20 C         138.3347  142.9183  164.6070 C.3     1  UNL1        0.0018
     21 C         138.4592  144.3606  164.9997 C.3     1  UNL1        0.0018
     22 C         141.8954  137.1001  156.7552 C.ar    1  UNL1        0.1547
     23 C         142.5134  137.3792  158.0931 C.ar    1  UNL1        0.0400
     24 C         142.0805  138.5782  158.8837 C.ar    1  UNL1        0.0241
     25 C         141.0295  139.4979  158.3364 C.ar    1  UNL1        0.0033
     26 C         140.4115  139.2187  156.9985 C.ar    1  UNL1        0.0207
     27 C         140.8444  138.0198  156.2079 C.ar    1  UNL1        0.0994
     28 N         140.2264  137.7407  154.8699 N.ar    1  UNL1       -0.2839
     29 C         140.9241  137.8128  153.5440 C.ar    1  UNL1        0.1826
     30 N         139.9310  137.4571  152.4777 N.ar    1  UNL1       -0.2280
     31 C         138.6195  137.1651  153.1444 C.ar    1  UNL1        0.0786
     32 C         137.3486  136.7676  152.4539 C.3     1  UNL1        0.0538
     33 C         138.8020  137.3404  154.6229 C.ar    1  UNL1        0.0963
     34 C         143.6903  135.8685  155.3370 C.3     1  UNL1        0.2525
     35 O         142.3283  135.9011  155.9645 O.3     1  UNL1       -0.4700
@<TRIPOS>BOND
     1    34    35    1
     2    35    22    1
     3    22    23   ar
     4    23    24   ar
     5    24     1    1
     6     1     2   ar
     7     2     3   ar
     8     3     6    1
     9     6     7    1
    10     7     8    1
    11     8     9    1
    12     9    10   ar
    13    10    11   ar
    14    11    12   ar
    15    12    13   ar
    16    13    14   ar
    17    14    15    1
    18    15    18    1
    19    18    19    1
    20    19    20    1
    21    20    21    1
    22    15    16   am
    23    16    17    2
    24     3     4   ar
    25     4     5   ar
    26    24    25   ar
    27    25    26   ar
    28    26    27   ar
    29    27    28    1
    30    28    29   ar
    31    29    30   ar
    32    30    31   ar
    33    31    32    1
    34    31    33   ar
    35    27    22   ar
    36    33    28   ar
    37     5     1   ar
    38    16     6    1
    39    14     9   ar
    40    21    19    1
@<TRIPOS>MOLECULE
*****
 35 40 0 0 0
SMALL
GASTEIGER

@<TRIPOS>ATOM
      1 C         142.2987  138.8557  160.9544 C.ar    1  UNL1        0.1233
      2 C         141.2742  138.4246  159.9472 C.ar    1  UNL1        0.1180
      3 N         141.9407  138.3640  158.6048 N.ar    1  UNL1       -0.2233
      4 N         143.3772  138.7576  158.7824 N.ar    1  UNL1       -0.0634
      5 N         143.5985  139.0615  160.2346 N.ar    1  UNL1       -0.1287
      6 C         141.2858  137.9775  157.3118 C.3     1  UNL1        0.1834
      7 C         140.0778  138.7800  156.9289 C.3     1  UNL1        0.0386
      8 C         139.2111  138.6428  155.7123 C.3     1  UNL1        0.0301
      9 C         139.3384  137.6694  154.5782 C.ar    1  UNL1       -0.0084
     10 C         138.2585  137.8731  153.5573 C.ar    1  UNL1       -0.0030
     11 C         138.2041  137.0000  152.3388 C.ar    1  UNL1       -0.0002
     12 C         139.2295  135.9233  152.1412 C.ar    1  UNL1        0.0013
     13 C         140.3094  135.7195  153.1621 C.ar    1  UNL1        0.0146
     14 C         140.3638  136.5926  154.3806 C.ar    1  UNL1        0.0499
     15 N         141.5152  136.2234  155.2683 N.am    1  UNL1       -0.2574
     16 C         141.9256  136.8397  156.5728 C.2     1  UNL1        0.2518
     17 O         143.1356  136.2388  157.2245 O.2     1  UNL1       -0.2724
     18 C         142.3692  135.0876  154.7880 C.3     1  UNL1        0.0982
     19 C         142.1484  133.7042  155.3242 C.3     1  UNL1        0.0202
     20 C         141.4167  132.3956  155.2807 C.3     1  UNL1        0.0018
     21 C         142.4979  132.6169  156.2966 C.3     1  UNL1        0.0018
     22 C         141.9720  140.6017  164.5033 C.ar    1  UNL1        0.1547
     23 C         142.2062  140.4102  163.0342 C.ar    1  UNL1        0.0400
     24 C         142.0645  139.0474  162.4236 C.ar    1  UNL1        0.0241
     25 C         141.6887  137.8762  163.2822 C.ar    1  UNL1        0.0033
     26 C         141.4545  138.0679  164.7513 C.ar    1  UNL1        0.0207
     27 C         141.5961  139.4306  165.3618 C.ar    1  UNL1        0.0994
     28 N         141.3619  139.6222  166.8311 N.ar    1  UNL1       -0.2839
     29 C         142.3840  139.4545  167.9161 C.ar    1  UNL1        0.1826
     30 N         141.7183  139.7438  169.2287 N.ar    1  UNL1       -0.2280
     31 C         140.2848  140.0903  168.9550 C.ar    1  UNL1        0.0786
     32 C         139.2527  140.4490  169.9827 C.3     1  UNL1        0.0538
     33 C         140.0645  140.0152  167.4732 C.ar    1  UNL1        0.0963
     34 C         143.4526  142.6401  165.1379 C.3     1  UNL1        0.2525
     35 O         142.1136  141.9645  165.1139 O.3     1  UNL1       -0.4700
@<TRIPOS>BOND
     1    34    35    1
     2    35    22    1
     3    22    23   ar
     4    23    24   ar
     5    24     1    1
     6     1     2   ar
     7     2     3   ar
     8     3     6    1
     9     6     7    1
    10     7     8    1
    11     8     9    1
    12     9    10   ar
    13    10    11   ar
    14    11    12   ar
    15    12    13   ar
    16    13    14   ar
    17    14    15    1
    18    15    18    1
    19    18    19    1
    20    19    20    1
    21    20    21    1
    22    15    16   am
    23    16    17    2
    24     3     4   ar
    25     4     5   ar
    26    24    25   ar
    27    25    26   ar
    28    26    27   ar
    29    27    28    1
    30    28    29   ar
    31    29    30   ar
    32    30    31   ar
    33    31    32    1
    34    31    33   ar
    35    27    22   ar
    36    33    28   ar
    37     5     1   ar
    38    16     6    1
    39    14     9   ar
    40    21    19    1
