@<TRIPOS>MOLECULE
*****
 39 42 0 0 0
SMALL
GASTEIGER

@<TRIPOS>ATOM
      1 N         143.3940  143.2269  162.7802 N.3     1  UNL1       -0.2684
      2 C         142.0542  143.6918  162.2916 C.3     1  UNL1        0.1035
      3 C         141.2235  142.7994  161.4180 C.3     1  UNL1        0.1470
      4 C         140.3927  141.9069  160.5442 C.3     1  UNL1        0.1035
      5 N         140.9018  140.5495  160.1591 N.3     1  UNL1       -0.2673
      6 C         142.2417  140.0846  160.6477 C.3     1  UNL1        0.1035
      7 C         143.0724  140.9771  161.5214 C.3     1  UNL1        0.1470
      8 C         143.9031  141.8696  162.3951 C.3     1  UNL1        0.1035
      9 O         141.7326  141.4420  161.0328 O.3     1  UNL1       -0.3530
     10 C         144.2247  144.1194  163.6540 C.3     1  UNL1        0.0761
     11 C         144.3470  143.8302  165.1207 C.3     1  UNL1        0.0646
     12 C         143.5405  142.7259  165.7372 C.3     1  UNL1        0.2068
     13 O         143.5583  142.5238  167.2234 O.3     1  UNL1       -0.4754
     14 C         139.9745  140.7620  169.2975 C.ar    1  UNL1        0.0686
     15 C         141.1271  139.8819  168.9143 C.ar    1  UNL1        0.0134
     16 C         142.3217  140.4691  168.2230 C.ar    1  UNL1        0.0376
     17 C         142.3637  141.9366  167.9148 C.ar    1  UNL1        0.1386
     18 C         141.2110  142.8167  168.2979 C.ar    1  UNL1        0.0376
     19 C         140.0164  142.2294  168.9893 C.ar    1  UNL1        0.0134
     20 N         137.5852  139.5874  170.6802 N.1     1  UNL1       -0.1908
     21 C         138.7799  140.1747  169.9889 C.1     1  UNL1        0.1004
     22 C         140.0711  139.6570  159.2854 C.3     1  UNL1        0.0913
     23 C         139.0371  138.7594  159.8978 C.3     1  UNL1        0.1087
     24 N         139.4323  137.7734  160.9569 N.3     1  UNL1       -0.1779
     25 H         140.4453  137.6694  160.8991 H       1  UNL1        0.1488
     26 S         139.1064  138.0470  162.3953 S.O2    1  UNL1        0.0632
     27 O         140.4819  137.5990  162.7921 O.2     1  UNL1       -0.1529
     28 O         137.7310  138.4949  161.9985 O.2     1  UNL1       -0.1529
     29 C         138.7805  138.3206  163.8337 C.ar    1  UNL1        0.1559
     30 C         138.5763  137.1801  164.7865 C.ar    1  UNL1        0.0230
     31 C         138.2505  137.4537  166.2248 C.ar    1  UNL1        0.0016
     32 C         138.1287  138.8676  166.7104 C.ar    1  UNL1        0.0032
     33 C         138.3329  140.0081  165.7577 C.ar    1  UNL1        0.0386
     34 C         138.6588  139.7345  164.3193 C.ar    1  UNL1        0.1652
     35 O         138.8629  140.8750  163.3666 O.3     1  UNL1       -0.4031
     36 C         138.1022  142.1540  163.5538 C.3     1  UNL1        0.5753
     37 F         137.3414  143.4332  163.7411 F       1  UNL1       -0.1328
     38 F         136.8957  141.5295  162.9181 F       1  UNL1       -0.1328
     39 F         139.3087  142.7786  164.1896 F       1  UNL1       -0.1328
@<TRIPOS>BOND
     1    20    21    3
     2    21    14    1
     3    14    15   ar
     4    15    16   ar
     5    16    17   ar
     6    17    13    1
     7    13    12    1
     8    12    11    1
     9    11    10    1
    10    10     1    1
    11     1     2    1
    12     2     3    1
    13     3     4    1
    14     4     5    1
    15     5    22    1
    16    22    23    1
    17    23    24    1
    18    24    26    1
    19    26    27    2
    20    26    28    2
    21    26    29    1
    22    29    30   ar
    23    30    31   ar
    24    31    32   ar
    25    32    33   ar
    26    33    34   ar
    27    34    35    1
    28    35    36    1
    29    36    37    1
    30    36    38    1
    31    36    39    1
    32     5     6    1
    33     6     7    1
    34     7     8    1
    35     7     9    1
    36    17    18   ar
    37    18    19   ar
    38    19    14   ar
    39     8     1    1
    40     9     3    1
    41    34    29   ar
    42    24    25    1
@<TRIPOS>MOLECULE
*****
 39 42 0 0 0
SMALL
GASTEIGER

@<TRIPOS>ATOM
      1 N         143.8042  138.9550  164.8444 N.3     1  UNL1       -0.2684
      2 C         142.9050  138.5177  163.7264 C.3     1  UNL1        0.1035
      3 C         142.9727  139.2073  162.3960 C.3     1  UNL1        0.1470
      4 C         143.0404  139.8969  161.0656 C.3     1  UNL1        0.1035
      5 N         144.0073  141.0239  160.8534 N.3     1  UNL1       -0.2673
      6 C         144.9065  141.4612  161.9715 C.3     1  UNL1        0.1035
      7 C         144.8388  140.7716  163.3018 C.3     1  UNL1        0.1470
      8 C         144.7711  140.0820  164.6322 C.3     1  UNL1        0.1035
      9 O         143.9396  140.3342  162.1838 O.3     1  UNL1       -0.3530
     10 C         143.7365  138.2654  166.1748 C.3     1  UNL1        0.0761
     11 C         142.9990  138.9042  167.3141 C.3     1  UNL1        0.0646
     12 C         141.9585  139.9498  167.0417 C.3     1  UNL1        0.2068
     13 O         140.5151  139.5589  166.9248 O.3     1  UNL1       -0.4754
     14 C         138.4970  139.5797  162.9028 C.ar    1  UNL1        0.0686
     15 C         138.7627  138.2794  163.6019 C.ar    1  UNL1        0.0134
     16 C         139.4354  138.2725  164.9425 C.ar    1  UNL1        0.0376
     17 C         139.8424  139.5658  165.5842 C.ar    1  UNL1        0.1386
     18 C         139.5767  140.8661  164.8851 C.ar    1  UNL1        0.0376
     19 C         138.9039  140.8730  163.5444 C.ar    1  UNL1        0.0134
     20 N         137.1516  139.5935  160.2214 N.1     1  UNL1       -0.1908
     21 C         137.8243  139.5866  161.5622 C.1     1  UNL1        0.1004
     22 C         144.0749  141.7135  159.5230 C.3     1  UNL1        0.0913
     23 C         143.4036  143.0412  159.3314 C.3     1  UNL1        0.1087
     24 N         141.9074  143.1379  159.3726 N.3     1  UNL1       -0.1779
     25 H         141.5457  142.2204  159.1125 H       1  UNL1        0.1488
     26 S         141.2160  143.5312  160.6444 S.O2    1  UNL1        0.0632
     27 O         141.8342  144.8951  160.5587 O.2     1  UNL1       -0.1529
     28 O         140.5979  142.1672  160.7301 O.2     1  UNL1       -0.1529
     29 C         140.5246  143.9244  161.9162 C.ar    1  UNL1        0.1559
     30 C         139.0579  144.2383  161.9063 C.ar    1  UNL1        0.0230
     31 C         138.3665  144.6315  163.1780 C.ar    1  UNL1        0.0016
     32 C         139.1418  144.7108  164.4596 C.ar    1  UNL1        0.0032
     33 C         140.6086  144.3969  164.4695 C.ar    1  UNL1        0.0386
     34 C         141.3000  144.0037  163.1978 C.ar    1  UNL1        0.1652
     35 O         142.7667  143.6898  163.2076 O.3     1  UNL1       -0.4031
     36 C         143.6655  144.3372  164.2190 C.3     1  UNL1        0.5753
     37 F         144.5643  144.9847  165.2305 F       1  UNL1       -0.1328
     38 F         143.4917  143.1574  165.1288 F       1  UNL1       -0.1328
     39 F         143.8393  145.5171  163.3093 F       1  UNL1       -0.1328
@<TRIPOS>BOND
     1    20    21    3
     2    21    14    1
     3    14    15   ar
     4    15    16   ar
     5    16    17   ar
     6    17    13    1
     7    13    12    1
     8    12    11    1
     9    11    10    1
    10    10     1    1
    11     1     2    1
    12     2     3    1
    13     3     4    1
    14     4     5    1
    15     5    22    1
    16    22    23    1
    17    23    24    1
    18    24    26    1
    19    26    27    2
    20    26    28    2
    21    26    29    1
    22    29    30   ar
    23    30    31   ar
    24    31    32   ar
    25    32    33   ar
    26    33    34   ar
    27    34    35    1
    28    35    36    1
    29    36    37    1
    30    36    38    1
    31    36    39    1
    32     5     6    1
    33     6     7    1
    34     7     8    1
    35     7     9    1
    36    17    18   ar
    37    18    19   ar
    38    19    14   ar
    39     8     1    1
    40     9     3    1
    41    34    29   ar
    42    24    25    1
@<TRIPOS>MOLECULE
*****
 39 42 0 0 0
SMALL
GASTEIGER

@<TRIPOS>ATOM
      1 N         142.0370  140.3937  158.9460 N.3     1  UNL1       -0.2684
      2 C         143.0142  141.4627  159.3360 C.3     1  UNL1        0.1035
      3 C         142.5654  142.6161  160.1834 C.3     1  UNL1        0.1470
      4 C         142.1165  143.7695  161.0309 C.3     1  UNL1        0.1035
      5 N         140.6905  143.8538  161.4884 N.3     1  UNL1       -0.2673
      6 C         139.7133  142.7847  161.0984 C.3     1  UNL1        0.1035
      7 C         140.1621  141.6313  160.2509 C.3     1  UNL1        0.1470
      8 C         140.6110  140.4780  159.4035 C.3     1  UNL1        0.1035
      9 O         141.1393  142.7004  160.6409 O.3     1  UNL1       -0.3530
     10 C         142.4859  139.2402  158.0985 C.3     1  UNL1        0.0761
     11 C         142.7308  137.8996  158.7252 C.3     1  UNL1        0.0646
     12 C         143.0159  137.7994  160.1945 C.3     1  UNL1        0.2068
     13 O         141.8833  137.7178  161.1744 O.3     1  UNL1       -0.4754
     14 C         142.6150  138.5593  165.5340 C.ar    1  UNL1        0.0686
     15 C         143.6070  139.0153  164.5054 C.ar    1  UNL1        0.0134
     16 C         143.3631  138.7348  163.0522 C.ar    1  UNL1        0.0376
     17 C         142.1272  137.9983  162.6276 C.ar    1  UNL1        0.1386
     18 C         141.1352  137.5423  163.6563 C.ar    1  UNL1        0.0376
     19 C         141.3792  137.8228  165.1095 C.ar    1  UNL1        0.0134
     20 N         143.1029  139.1203  168.4405 N.1     1  UNL1       -0.1908
     21 C         142.8589  138.8398  166.9872 C.1     1  UNL1        0.1004
     22 C         140.2416  145.0072  162.3359 C.3     1  UNL1        0.0913
     23 C         140.3539  144.9287  163.8297 C.3     1  UNL1        0.1087
     24 N         141.1665  143.8394  164.4645 N.3     1  UNL1       -0.1779
     25 H         141.7302  144.2787  165.1924 H       1  UNL1        0.1488
     26 S         140.4816  142.6644  165.0971 S.O2    1  UNL1        0.0632
     27 O         141.6571  141.7966  164.7580 O.2     1  UNL1       -0.1529
     28 O         139.3061  143.5322  165.4363 O.2     1  UNL1       -0.1529
     29 C         139.7966  141.4894  165.7298 C.ar    1  UNL1        0.1559
     30 C         138.8494  140.6505  164.9243 C.ar    1  UNL1        0.0230
     31 C         138.1644  139.4755  165.5569 C.ar    1  UNL1        0.0016
     32 C         138.4267  139.1395  166.9950 C.ar    1  UNL1        0.0032
     33 C         139.3740  139.9784  167.8005 C.ar    1  UNL1        0.0386
     34 C         140.0589  141.1534  167.1679 C.ar    1  UNL1        0.1652
     35 O         141.0062  141.9923  167.9735 O.3     1  UNL1       -0.4031
     36 C         140.5220  142.6962  169.2063 C.3     1  UNL1        0.5753
     37 F         140.0378  143.4001  170.4393 F       1  UNL1       -0.1328
     38 F         139.9806  143.8088  168.3585 F       1  UNL1       -0.1328
     39 F         141.0634  141.5835  170.0542 F       1  UNL1       -0.1328
@<TRIPOS>BOND
     1    20    21    3
     2    21    14    1
     3    14    15   ar
     4    15    16   ar
     5    16    17   ar
     6    17    13    1
     7    13    12    1
     8    12    11    1
     9    11    10    1
    10    10     1    1
    11     1     2    1
    12     2     3    1
    13     3     4    1
    14     4     5    1
    15     5    22    1
    16    22    23    1
    17    23    24    1
    18    24    26    1
    19    26    27    2
    20    26    28    2
    21    26    29    1
    22    29    30   ar
    23    30    31   ar
    24    31    32   ar
    25    32    33   ar
    26    33    34   ar
    27    34    35    1
    28    35    36    1
    29    36    37    1
    30    36    38    1
    31    36    39    1
    32     5     6    1
    33     6     7    1
    34     7     8    1
    35     7     9    1
    36    17    18   ar
    37    18    19   ar
    38    19    14   ar
    39     8     1    1
    40     9     3    1
    41    34    29   ar
    42    24    25    1
@<TRIPOS>MOLECULE
*****
 39 42 0 0 0
SMALL
GASTEIGER

@<TRIPOS>ATOM
      1 N         138.6808  143.6330  161.9730 N.3     1  UNL1       -0.2684
      2 C         139.9529  144.0844  161.3188 C.3     1  UNL1        0.1035
      3 C         140.7238  143.1391  160.4459 C.3     1  UNL1        0.1470
      4 C         141.4948  142.1937  159.5730 C.3     1  UNL1        0.1035
      5 N         140.9936  140.7969  159.3543 N.3     1  UNL1       -0.2673
      6 C         139.7214  140.3455  160.0085 C.3     1  UNL1        0.1035
      7 C         138.9505  141.2908  160.8814 C.3     1  UNL1        0.1470
      8 C         138.1796  142.2362  161.7542 C.3     1  UNL1        0.1035
      9 O         140.2226  141.7423  160.2272 O.3     1  UNL1       -0.3530
     10 C         137.9098  144.5783  162.8459 C.3     1  UNL1        0.0761
     11 C         137.7354  144.2786  164.3052 C.3     1  UNL1        0.0646
     12 C         138.9354  144.0109  165.1646 C.3     1  UNL1        0.2068
     13 O         139.8772  142.8980  164.8119 O.3     1  UNL1       -0.4754
     14 C         141.7280  140.4006  168.0657 C.ar    1  UNL1        0.0686
     15 C         140.3364  140.1030  167.5916 C.ar    1  UNL1        0.0134
     16 C         139.7194  140.9354  166.5070 C.ar    1  UNL1        0.0376
     17 C         140.4941  142.0655  165.8964 C.ar    1  UNL1        0.1386
     18 C         141.8858  142.3631  166.3705 C.ar    1  UNL1        0.0376
     19 C         142.5027  141.5306  167.4551 C.ar    1  UNL1        0.0134
     20 N         142.9620  138.7357  170.2349 N.1     1  UNL1       -0.1908
     21 C         142.3450  139.5681  169.1502 C.1     1  UNL1        0.1004
     22 C         141.7645  139.8516  158.4814 C.3     1  UNL1        0.0913
     23 C         142.7260  138.8780  159.0961 C.3     1  UNL1        0.1087
     24 N         143.8255  139.3719  159.9888 N.3     1  UNL1       -0.1779
     25 H         143.8798  140.3820  159.8578 H       1  UNL1        0.1488
     26 S         143.7566  139.1301  161.4676 S.O2    1  UNL1        0.0632
     27 O         143.3992  140.5703  161.6864 O.2     1  UNL1       -0.1529
     28 O         144.1141  137.6899  161.2487 O.2     1  UNL1       -0.1529
     29 C         143.6878  138.8882  162.9464 C.ar    1  UNL1        0.1559
     30 C         144.8761  139.1874  163.8114 C.ar    1  UNL1        0.0230
     31 C         144.8073  138.9455  165.2901 C.ar    1  UNL1        0.0016
     32 C         143.5501  138.4045  165.9039 C.ar    1  UNL1        0.0032
     33 C         142.3617  138.1054  165.0388 C.ar    1  UNL1        0.0386
     34 C         142.4306  138.3472  163.5601 C.ar    1  UNL1        0.1652
     35 O         141.2422  138.0480  162.6951 O.3     1  UNL1       -0.4031
     36 C         139.8831  138.5449  163.0899 C.3     1  UNL1        0.5753
     37 F         138.5239  139.0418  163.4847 F       1  UNL1       -0.1328
     38 F         139.3102  137.1828  162.8319 F       1  UNL1       -0.1328
     39 F         140.4559  139.9069  163.3478 F       1  UNL1       -0.1328
@<TRIPOS>BOND
     1    20    21    3
     2    21    14    1
     3    14    15   ar
     4    15    16   ar
     5    16    17   ar
     6    17    13    1
     7    13    12    1
     8    12    11    1
     9    11    10    1
    10    10     1    1
    11     1     2    1
    12     2     3    1
    13     3     4    1
    14     4     5    1
    15     5    22    1
    16    22    23    1
    17    23    24    1
    18    24    26    1
    19    26    27    2
    20    26    28    2
    21    26    29    1
    22    29    30   ar
    23    30    31   ar
    24    31    32   ar
    25    32    33   ar
    26    33    34   ar
    27    34    35    1
    28    35    36    1
    29    36    37    1
    30    36    38    1
    31    36    39    1
    32     5     6    1
    33     6     7    1
    34     7     8    1
    35     7     9    1
    36    17    18   ar
    37    18    19   ar
    38    19    14   ar
    39     8     1    1
    40     9     3    1
    41    34    29   ar
    42    24    25    1
@<TRIPOS>MOLECULE
*****
 39 42 0 0 0
SMALL
GASTEIGER

@<TRIPOS>ATOM
      1 N         138.7755  139.5702  160.1383 N.3     1  UNL1       -0.2684
      2 C         139.2923  138.3377  160.8194 C.3     1  UNL1        0.1035
      3 C         139.2029  138.2121  162.3115 C.3     1  UNL1        0.1470
      4 C         139.1134  138.0864  163.8036 C.3     1  UNL1        0.1035
      5 N         138.5072  139.1931  164.6145 N.3     1  UNL1       -0.2673
      6 C         137.9903  140.4256  163.9332 C.3     1  UNL1        0.1035
      7 C         138.0798  140.5512  162.4412 C.3     1  UNL1        0.1470
      8 C         138.1692  140.6769  160.9492 C.3     1  UNL1        0.1035
      9 O         138.5966  139.3188  163.1224 O.3     1  UNL1       -0.3530
     10 C         138.8649  139.6959  158.6462 C.3     1  UNL1        0.0761
     11 C         139.0125  141.0486  158.0150 C.3     1  UNL1        0.0646
     12 C         140.2533  141.8567  158.2546 C.3     1  UNL1        0.2068
     13 O         141.6008  141.2020  158.1795 O.3     1  UNL1       -0.4754
     14 C         143.7650  140.0678  161.9583 C.ar    1  UNL1        0.0686
     15 C         143.7610  139.1315  160.7865 C.ar    1  UNL1        0.0134
     16 C         143.0396  139.5095  159.5269 C.ar    1  UNL1        0.0376
     17 C         142.3222  140.8240  159.4391 C.ar    1  UNL1        0.1386
     18 C         142.3263  141.7603  160.6109 C.ar    1  UNL1        0.0376
     19 C         143.0477  141.3822  161.8706 C.ar    1  UNL1        0.0134
     20 N         145.2078  139.3117  164.4776 N.1     1  UNL1       -0.1908
     21 C         144.4864  139.6898  163.2179 C.1     1  UNL1        0.1004
     22 C         138.4177  139.0674  166.1065 C.3     1  UNL1        0.0913
     23 C         139.2468  139.9568  166.9851 C.3     1  UNL1        0.1087
     24 N         140.7417  139.9498  166.8621 N.3     1  UNL1       -0.1779
     25 H         140.9903  139.1093  166.3404 H       1  UNL1        0.1488
     26 S         141.4448  141.0959  166.1972 S.O2    1  UNL1        0.0632
     27 O         141.5023  140.3175  164.9163 O.2     1  UNL1       -0.1529
     28 O         141.3872  141.8743  167.4781 O.2     1  UNL1       -0.1529
     29 C         142.1479  142.2421  165.5324 C.ar    1  UNL1        0.1559
     30 C         143.6453  142.3243  165.5656 C.ar    1  UNL1        0.0230
     31 C         144.3484  143.4703  164.9008 C.ar    1  UNL1        0.0016
     32 C         143.5542  144.5343  164.2028 C.ar    1  UNL1        0.0032
     33 C         142.0568  144.4521  164.1696 C.ar    1  UNL1        0.0386
     34 C         141.3537  143.3060  164.8344 C.ar    1  UNL1        0.1652
     35 O         139.8563  143.2238  164.8012 O.3     1  UNL1       -0.4031
     36 C         139.0311  144.3439  165.3618 C.3     1  UNL1        0.5753
     37 F         138.2058  145.4641  165.9225 F       1  UNL1       -0.1328
     38 F         138.5089  144.6465  163.9886 F       1  UNL1       -0.1328
     39 F         139.5533  144.0414  166.7350 F       1  UNL1       -0.1328
@<TRIPOS>BOND
     1    20    21    3
     2    21    14    1
     3    14    15   ar
     4    15    16   ar
     5    16    17   ar
     6    17    13    1
     7    13    12    1
     8    12    11    1
     9    11    10    1
    10    10     1    1
    11     1     2    1
    12     2     3    1
    13     3     4    1
    14     4     5    1
    15     5    22    1
    16    22    23    1
    17    23    24    1
    18    24    26    1
    19    26    27    2
    20    26    28    2
    21    26    29    1
    22    29    30   ar
    23    30    31   ar
    24    31    32   ar
    25    32    33   ar
    26    33    34   ar
    27    34    35    1
    28    35    36    1
    29    36    37    1
    30    36    38    1
    31    36    39    1
    32     5     6    1
    33     6     7    1
    34     7     8    1
    35     7     9    1
    36    17    18   ar
    37    18    19   ar
    38    19    14   ar
    39     8     1    1
    40     9     3    1
    41    34    29   ar
    42    24    25    1
@<TRIPOS>MOLECULE
*****
 39 42 0 0 0
SMALL
GASTEIGER

@<TRIPOS>ATOM
      1 N         138.5373  143.5138  161.9531 N.3     1  UNL1       -0.2684
      2 C         139.6973  144.1264  161.2258 C.3     1  UNL1        0.1035
      3 C         140.4689  143.3159  160.2270 C.3     1  UNL1        0.1470
      4 C         141.2405  142.5054  159.2281 C.3     1  UNL1        0.1035
      5 N         140.8520  141.0822  158.9566 N.3     1  UNL1       -0.2673
      6 C         139.6920  140.4696  159.6839 C.3     1  UNL1        0.1035
      7 C         138.9204  141.2801  160.6828 C.3     1  UNL1        0.1470
      8 C         138.1489  142.0906  161.6816 C.3     1  UNL1        0.1035
      9 O         140.0804  141.8927  159.9555 O.3     1  UNL1       -0.3530
     10 C         137.7657  144.3243  162.9520 C.3     1  UNL1        0.0761
     11 C         137.8649  144.0048  164.4142 C.3     1  UNL1        0.0646
     12 C         139.1573  144.2233  165.1436 C.3     1  UNL1        0.2068
     13 O         140.3450  143.3588  164.8406 O.3     1  UNL1       -0.4754
     14 C         141.8784  140.4761  167.9372 C.ar    1  UNL1        0.0686
     15 C         140.4569  140.3856  167.4669 C.ar    1  UNL1        0.0134
     16 C         139.9458  141.3464  166.4347 C.ar    1  UNL1        0.0376
     17 C         140.8562  142.3979  165.8728 C.ar    1  UNL1        0.1386
     18 C         142.2776  142.4884  166.3431 C.ar    1  UNL1        0.0376
     19 C         142.7887  141.5275  167.3753 C.ar    1  UNL1        0.0134
     20 N         142.9006  138.5544  170.0017 N.1     1  UNL1       -0.1908
     21 C         142.3895  139.5153  168.9694 C.1     1  UNL1        0.1004
     22 C         141.6236  140.2717  157.9577 C.3     1  UNL1        0.0913
     23 C         142.4306  139.0917  158.4122 C.3     1  UNL1        0.1087
     24 N         143.4854  139.2649  159.4645 N.3     1  UNL1       -0.1779
     25 H         143.7719  140.2435  159.4359 H       1  UNL1        0.1488
     26 S         143.1751  138.9463  160.8970 S.O2    1  UNL1        0.0632
     27 O         143.4569  137.4964  160.6355 O.2     1  UNL1       -0.1529
     28 O         142.8933  140.3961  161.1585 O.2     1  UNL1       -0.1529
     29 C         142.8648  138.6276  162.3296 C.ar    1  UNL1        0.1559
     30 C         141.7288  137.7069  162.6641 C.ar    1  UNL1        0.0230
     31 C         141.4185  137.3883  164.0966 C.ar    1  UNL1        0.0016
     32 C         142.2442  137.9903  165.1946 C.ar    1  UNL1        0.0032
     33 C         143.3802  138.9110  164.8602 C.ar    1  UNL1        0.0386
     34 C         143.6905  139.2296  163.4277 C.ar    1  UNL1        0.1652
     35 O         144.8265  140.1503  163.0932 O.3     1  UNL1       -0.4031
     36 C         145.0264  141.4115  163.8803 C.3     1  UNL1        0.5753
     37 F         145.2263  142.6727  164.6674 F       1  UNL1       -0.1328
     38 F         143.6473  141.8653  163.5033 F       1  UNL1       -0.1328
     39 F         146.4054  140.9577  164.2572 F       1  UNL1       -0.1328
@<TRIPOS>BOND
     1    20    21    3
     2    21    14    1
     3    14    15   ar
     4    15    16   ar
     5    16    17   ar
     6    17    13    1
     7    13    12    1
     8    12    11    1
     9    11    10    1
    10    10     1    1
    11     1     2    1
    12     2     3    1
    13     3     4    1
    14     4     5    1
    15     5    22    1
    16    22    23    1
    17    23    24    1
    18    24    26    1
    19    26    27    2
    20    26    28    2
    21    26    29    1
    22    29    30   ar
    23    30    31   ar
    24    31    32   ar
    25    32    33   ar
    26    33    34   ar
    27    34    35    1
    28    35    36    1
    29    36    37    1
    30    36    38    1
    31    36    39    1
    32     5     6    1
    33     6     7    1
    34     7     8    1
    35     7     9    1
    36    17    18   ar
    37    18    19   ar
    38    19    14   ar
    39     8     1    1
    40     9     3    1
    41    34    29   ar
    42    24    25    1
@<TRIPOS>MOLECULE
*****
 39 42 0 0 0
SMALL
GASTEIGER

@<TRIPOS>ATOM
      1 N         139.7052  141.9889  158.2128 N.3     1  UNL1       -0.2684
      2 C         138.3790  141.9920  158.9136 C.3     1  UNL1        0.1035
      3 C         138.0881  140.9705  159.9728 C.3     1  UNL1        0.1470
      4 C         137.7971  139.9489  161.0320 C.3     1  UNL1        0.1035
      5 N         138.8324  138.9243  161.3903 N.3     1  UNL1       -0.2673
      6 C         140.1586  138.9212  160.6894 C.3     1  UNL1        0.1035
      7 C         140.4495  139.9427  159.6302 C.3     1  UNL1        0.1470
      8 C         140.7404  140.9642  158.5711 C.3     1  UNL1        0.1035
      9 O         139.1234  139.9459  160.3311 O.3     1  UNL1       -0.3530
     10 C         139.9962  143.0104  157.1536 C.3     1  UNL1        0.0761
     11 C         139.7961  144.4686  157.4428 C.3     1  UNL1        0.0646
     12 C         140.4502  145.0924  158.6399 C.3     1  UNL1        0.2068
     13 O         139.7945  145.0007  159.9858 O.3     1  UNL1       -0.4754
     14 C         142.1969  143.7463  163.5782 C.ar    1  UNL1        0.0686
     15 C         141.8184  142.7337  162.5383 C.ar    1  UNL1        0.0134
     16 C         141.0176  143.1518  161.3408 C.ar    1  UNL1        0.0376
     17 C         140.5953  144.5826  161.1833 C.ar    1  UNL1        0.1386
     18 C         140.9738  145.5951  162.2232 C.ar    1  UNL1        0.0376
     19 C         141.7747  145.1770  163.4207 C.ar    1  UNL1        0.0134
     20 N         143.7985  142.9101  165.9731 N.1     1  UNL1       -0.1908
     21 C         142.9977  143.3282  164.7756 C.1     1  UNL1        0.1004
     22 C         138.5415  137.9028  162.4494 C.3     1  UNL1        0.0913
     23 C         139.5449  137.6390  163.5328 C.3     1  UNL1        0.1087
     24 N         139.4343  138.3526  164.8475 N.3     1  UNL1       -0.1779
     25 H         140.2946  138.1600  165.3604 H       1  UNL1        0.1488
     26 S         139.2344  139.8389  164.8796 S.O2    1  UNL1        0.0632
     27 O         137.9305  139.6481  165.5959 O.2     1  UNL1       -0.1529
     28 O         140.5384  140.0296  164.1632 O.2     1  UNL1       -0.1529
     29 C         139.0347  141.3252  164.9116 C.ar    1  UNL1        0.1559
     30 C         138.1446  141.9843  163.9000 C.ar    1  UNL1        0.0230
     31 C         137.9448  143.4705  163.9320 C.ar    1  UNL1        0.0016
     32 C         138.6351  144.2977  164.9756 C.ar    1  UNL1        0.0032
     33 C         139.5252  143.6387  165.9872 C.ar    1  UNL1        0.0386
     34 C         139.7250  142.1524  165.9552 C.ar    1  UNL1        0.1652
     35 O         140.6151  141.4934  166.9668 O.3     1  UNL1       -0.4031
     36 C         140.2971  141.6008  168.4287 C.3     1  UNL1        0.5753
     37 F         139.9791  141.7084  169.8908 F       1  UNL1       -0.1328
     38 F         139.3131  140.4764  168.2974 F       1  UNL1       -0.1328
     39 F         141.2811  142.7253  168.5601 F       1  UNL1       -0.1328
@<TRIPOS>BOND
     1    20    21    3
     2    21    14    1
     3    14    15   ar
     4    15    16   ar
     5    16    17   ar
     6    17    13    1
     7    13    12    1
     8    12    11    1
     9    11    10    1
    10    10     1    1
    11     1     2    1
    12     2     3    1
    13     3     4    1
    14     4     5    1
    15     5    22    1
    16    22    23    1
    17    23    24    1
    18    24    26    1
    19    26    27    2
    20    26    28    2
    21    26    29    1
    22    29    30   ar
    23    30    31   ar
    24    31    32   ar
    25    32    33   ar
    26    33    34   ar
    27    34    35    1
    28    35    36    1
    29    36    37    1
    30    36    38    1
    31    36    39    1
    32     5     6    1
    33     6     7    1
    34     7     8    1
    35     7     9    1
    36    17    18   ar
    37    18    19   ar
    38    19    14   ar
    39     8     1    1
    40     9     3    1
    41    34    29   ar
    42    24    25    1
@<TRIPOS>MOLECULE
*****
 39 42 0 0 0
SMALL
GASTEIGER

@<TRIPOS>ATOM
      1 N         142.7355  139.4837  161.1352 N.3     1  UNL1       -0.2684
      2 C         143.1139  138.4212  162.1240 C.3     1  UNL1        0.1035
      3 C         142.0920  137.8954  163.0878 C.3     1  UNL1        0.1470
      4 C         141.0700  137.3695  164.0518 C.3     1  UNL1        0.1035
      5 N         139.6695  137.9062  164.0269 N.3     1  UNL1       -0.2673
      6 C         139.2911  138.9688  163.0380 C.3     1  UNL1        0.1035
      7 C         140.3130  139.4946  162.0742 C.3     1  UNL1        0.1470
      8 C         141.3350  140.0205  161.1103 C.3     1  UNL1        0.1035
      9 O         140.6915  138.4321  163.0629 O.3     1  UNL1       -0.3530
     10 C         143.7574  140.0096  160.1713 C.3     1  UNL1        0.0761
     11 C         143.4283  141.1812  159.2944 C.3     1  UNL1        0.0646
     12 C         143.4855  142.5734  159.8501 C.3     1  UNL1        0.2068
     13 O         143.7690  142.7883  161.3072 O.3     1  UNL1       -0.4754
     14 C         140.5112  144.2616  164.0396 C.ar    1  UNL1        0.0686
     15 C         141.7655  143.6751  164.6163 C.ar    1  UNL1        0.0134
     16 C         142.8514  143.1839  163.7055 C.ar    1  UNL1        0.0376
     17 C         142.6830  143.2794  162.2180 C.ar    1  UNL1        0.1386
     18 C         141.4287  143.8660  161.6413 C.ar    1  UNL1        0.0376
     19 C         140.3427  144.3571  162.5522 C.ar    1  UNL1        0.0134
     20 N         138.3392  145.2439  165.8611 N.1     1  UNL1       -0.1908
     21 C         139.4252  144.7528  164.9503 C.1     1  UNL1        0.1004
     22 C         138.6476  137.3804  164.9907 C.3     1  UNL1        0.0913
     23 C         138.3109  138.1609  166.2267 C.3     1  UNL1        0.1087
     24 N         138.4141  139.6573  166.2202 N.3     1  UNL1       -0.1779
     25 H         137.5269  140.0151  166.5741 H       1  UNL1        0.1488
     26 S         139.4983  140.3377  167.0021 S.O2    1  UNL1        0.0632
     27 O         139.9243  141.0767  165.7683 O.2     1  UNL1       -0.1529
     28 O         139.0723  139.5986  168.2359 O.2     1  UNL1       -0.1529
     29 C         140.5826  141.0181  167.7841 C.ar    1  UNL1        0.1559
     30 C         140.3028  142.3168  168.4806 C.ar    1  UNL1        0.0230
     31 C         141.3870  142.9972  169.2626 C.ar    1  UNL1        0.0016
     32 C         142.7509  142.3790  169.3480 C.ar    1  UNL1        0.0032
     33 C         143.0307  141.0803  168.6515 C.ar    1  UNL1        0.0386
     34 C         141.9465  140.3999  167.8695 C.ar    1  UNL1        0.1652
     35 O         142.2263  139.1012  167.1730 O.3     1  UNL1       -0.4031
     36 C         143.4119  138.9787  166.2624 C.3     1  UNL1        0.5753
     37 F         144.5976  138.8563  165.3517 F       1  UNL1       -0.1328
     38 F         142.9213  140.1513  165.4659 F       1  UNL1       -0.1328
     39 F         143.9025  137.8062  167.0588 F       1  UNL1       -0.1328
@<TRIPOS>BOND
     1    20    21    3
     2    21    14    1
     3    14    15   ar
     4    15    16   ar
     5    16    17   ar
     6    17    13    1
     7    13    12    1
     8    12    11    1
     9    11    10    1
    10    10     1    1
    11     1     2    1
    12     2     3    1
    13     3     4    1
    14     4     5    1
    15     5    22    1
    16    22    23    1
    17    23    24    1
    18    24    26    1
    19    26    27    2
    20    26    28    2
    21    26    29    1
    22    29    30   ar
    23    30    31   ar
    24    31    32   ar
    25    32    33   ar
    26    33    34   ar
    27    34    35    1
    28    35    36    1
    29    36    37    1
    30    36    38    1
    31    36    39    1
    32     5     6    1
    33     6     7    1
    34     7     8    1
    35     7     9    1
    36    17    18   ar
    37    18    19   ar
    38    19    14   ar
    39     8     1    1
    40     9     3    1
    41    34    29   ar
    42    24    25    1
@<TRIPOS>MOLECULE
*****
 39 42 0 0 0
SMALL
GASTEIGER

@<TRIPOS>ATOM
      1 N         141.8747  143.7652  159.2345 N.3     1  UNL1       -0.2684
      2 C         142.9931  143.5393  160.2082 C.3     1  UNL1        0.1035
      3 C         143.4045  142.1422  160.5669 C.3     1  UNL1        0.1470
      4 C         143.8160  140.7450  160.9256 C.3     1  UNL1        0.1035
      5 N         143.1090  139.5737  160.3106 N.3     1  UNL1       -0.2673
      6 C         141.9905  139.7996  159.3369 C.3     1  UNL1        0.1035
      7 C         141.5791  141.1968  158.9782 C.3     1  UNL1        0.1470
      8 C         141.1677  142.5939  158.6195 C.3     1  UNL1        0.1035
      9 O         142.6975  140.9709  159.9519 O.3     1  UNL1       -0.3530
     10 C         141.4633  145.1624  158.8758 C.3     1  UNL1        0.0761
     11 C         140.2945  145.8006  159.5661 C.3     1  UNL1        0.0646
     12 C         139.8729  145.3227  160.9240 C.3     1  UNL1        0.2068
     13 O         140.6999  145.6619  162.1286 O.3     1  UNL1       -0.4754
     14 C         140.4469  143.1062  165.8237 C.ar    1  UNL1        0.0686
     15 C         141.6121  142.9616  164.8902 C.ar    1  UNL1        0.0134
     16 C         141.6964  143.8135  163.6585 C.ar    1  UNL1        0.0376
     17 C         140.6156  144.8100  163.3603 C.ar    1  UNL1        0.1386
     18 C         139.4504  144.9546  164.2938 C.ar    1  UNL1        0.0376
     19 C         139.3661  144.1026  165.5256 C.ar    1  UNL1        0.0134
     20 N         140.2781  141.4023  168.2871 N.1     1  UNL1       -0.1908
     21 C         140.3625  142.2543  167.0554 C.1     1  UNL1        0.1004
     22 C         143.5204  138.1766  160.6693 C.3     1  UNL1        0.0913
     23 C         142.6290  137.3294  161.5283 C.3     1  UNL1        0.1087
     24 N         142.2249  137.8083  162.8911 N.3     1  UNL1       -0.1779
     25 H         143.0468  138.2494  163.3039 H       1  UNL1        0.1488
     26 S         141.0918  138.7799  163.0390 S.O2    1  UNL1        0.0632
     27 O         142.0007  139.7301  163.7608 O.2     1  UNL1       -0.1529
     28 O         140.1828  137.8298  162.3173 O.2     1  UNL1       -0.1529
     29 C         139.9586  139.7516  163.1870 C.ar    1  UNL1        0.1559
     30 C         139.6220  140.6878  162.0644 C.ar    1  UNL1        0.0230
     31 C         138.4888  141.6594  162.2123 C.ar    1  UNL1        0.0016
     32 C         137.6923  141.6948  163.4828 C.ar    1  UNL1        0.0032
     33 C         138.0289  140.7586  164.6054 C.ar    1  UNL1        0.0386
     34 C         139.1620  139.7870  164.4575 C.ar    1  UNL1        0.1652
     35 O         139.4986  138.8507  165.5801 O.3     1  UNL1       -0.4031
     36 C         138.4340  137.9745  166.1706 C.3     1  UNL1        0.5753
     37 F         137.3693  137.0982  166.7612 F       1  UNL1       -0.1328
     38 F         138.3478  138.8820  167.3618 F       1  UNL1       -0.1328
     39 F         138.5201  137.0670  164.9794 F       1  UNL1       -0.1328
@<TRIPOS>BOND
     1    20    21    3
     2    21    14    1
     3    14    15   ar
     4    15    16   ar
     5    16    17   ar
     6    17    13    1
     7    13    12    1
     8    12    11    1
     9    11    10    1
    10    10     1    1
    11     1     2    1
    12     2     3    1
    13     3     4    1
    14     4     5    1
    15     5    22    1
    16    22    23    1
    17    23    24    1
    18    24    26    1
    19    26    27    2
    20    26    28    2
    21    26    29    1
    22    29    30   ar
    23    30    31   ar
    24    31    32   ar
    25    32    33   ar
    26    33    34   ar
    27    34    35    1
    28    35    36    1
    29    36    37    1
    30    36    38    1
    31    36    39    1
    32     5     6    1
    33     6     7    1
    34     7     8    1
    35     7     9    1
    36    17    18   ar
    37    18    19   ar
    38    19    14   ar
    39     8     1    1
    40     9     3    1
    41    34    29   ar
    42    24    25    1
