@<TRIPOS>MOLECULE
*****
 25 27 0 0 0
SMALL
GASTEIGER

@<TRIPOS>ATOM
      1 N         138.7594  141.2149  163.4255 N.ar    1  UNL1       -0.2495
      2 C         139.7766  141.4974  164.4912 C.ar    1  UNL1        0.0962
      3 C         139.7244  140.3793  165.4897 C.ar    1  UNL1        0.0385
      4 C         138.6750  139.4058  165.0412 C.ar    1  UNL1        0.1733
      5 N         138.0786  139.9223  163.7655 N.ar    1  UNL1       -0.1653
      6 C         140.5728  140.2561  166.7207 C.2     1  UNL1       -0.0132
      7 C         141.8659  139.4980  166.6676 C.2     1  UNL1       -0.0038
      8 C         142.7142  139.3749  167.8986 C.2     1  UNL1        0.0009
      9 C         142.2693  140.0100  169.1826 C.2     1  UNL1        0.0154
     10 C         142.8904  140.0568  170.5472 C.2     1  UNL1        0.0218
     11 C         141.9810  140.8439  171.4435 C.2     1  UNL1        0.0985
     12 N         140.7979  141.2836  170.6330 N.2     1  UNL1       -0.2478
     13 C         140.9761  140.7682  169.2356 C.2     1  UNL1        0.0634
     14 C         140.1278  140.8912  168.0047 C.3     1  UNL1        0.0721
     15 C         138.2897  138.1383  165.7449 C.3     1  UNL1        0.4365
     16 F         137.9045  136.8709  166.4485 F       1  UNL1       -0.1643
     17 F         139.1349  137.3504  164.7884 F       1  UNL1       -0.1643
     18 F         137.4445  138.9262  166.7013 F       1  UNL1       -0.1643
     19 C         138.4732  142.0743  162.2298 C.3     1  UNL1        0.1275
     20 C         137.7667  143.3864  162.4011 C.3     1  UNL1        0.0278
     21 C         138.4974  144.5618  162.9792 C.3     1  UNL1        0.0189
     22 N         140.3861  146.2559  162.4196 N.3     1  UNL1       -0.3211
     23 C         139.9133  144.8403  162.5695 C.3     1  UNL1        0.0652
     24 H         141.3663  146.2589  162.1377 H       1  UNL1        0.1189
     25 H         140.2867  146.7436  163.3099 H       1  UNL1        0.1189
@<TRIPOS>BOND
     1    22    23    1
     2    23    21    1
     3    21    20    1
     4    20    19    1
     5    19     1    1
     6     1     2   ar
     7     2     3   ar
     8     3     6    1
     9     6     7    2
    10     7     8    1
    11     8     9    2
    12     9    10    1
    13    10    11    2
    14    11    12    1
    15    12    13    2
    16    13    14    1
    17     3     4   ar
    18     4    15    1
    19    15    16    1
    20    15    17    1
    21    15    18    1
    22     4     5   ar
    23     5     1   ar
    24    14     6    1
    25    13     9    1
    26    22    24    1
    27    22    25    1
@<TRIPOS>MOLECULE
*****
 25 27 0 0 0
SMALL
GASTEIGER

@<TRIPOS>ATOM
      1 N         138.1652  139.4741  169.2092 N.ar    1  UNL1       -0.2495
      2 C         139.4619  140.1595  168.8944 C.ar    1  UNL1        0.0962
      3 C         139.7390  139.9778  167.4314 C.ar    1  UNL1        0.0385
      4 C         138.6136  139.1800  166.8421 C.ar    1  UNL1        0.1733
      5 N         137.6411  138.8687  167.9408 N.ar    1  UNL1       -0.1653
      6 C         140.9320  140.5018  166.6882 C.2     1  UNL1       -0.0132
      7 C         141.1092  141.9793  166.5007 C.2     1  UNL1       -0.0038
      8 C         142.3022  142.5034  165.7575 C.2     1  UNL1        0.0009
      9 C         143.3179  141.5496  165.2019 C.2     1  UNL1        0.0154
     10 C         144.5854  141.7703  164.4308 C.2     1  UNL1        0.0218
     11 C         145.1915  140.4290  164.1417 C.2     1  UNL1        0.0985
     12 N         144.2986  139.3794  164.7342 N.2     1  UNL1       -0.2478
     13 C         143.1406  140.0720  165.3894 C.2     1  UNL1        0.0634
     14 C         141.9477  139.5481  166.1326 C.3     1  UNL1        0.0721
     15 C         138.4838  138.7662  165.4061 C.3     1  UNL1        0.4365
     16 F         138.3539  138.3525  163.9702 F       1  UNL1       -0.1643
     17 F         138.0282  140.1499  165.0486 F       1  UNL1       -0.1643
     18 F         138.9393  137.3825  165.7636 F       1  UNL1       -0.1643
     19 C         137.5082  139.4060  170.5559 C.3     1  UNL1        0.1275
     20 C         136.2494  138.6106  170.7369 C.3     1  UNL1        0.0278
     21 C         135.8508  138.1382  172.1035 C.3     1  UNL1        0.0189
     22 N         135.7670  135.6522  172.8539 N.3     1  UNL1       -0.3211
     23 C         136.5213  136.9404  172.7084 C.3     1  UNL1        0.0652
     24 H         136.3717  134.9504  173.2808 H       1  UNL1        0.1189
     25 H         135.4667  135.3283  171.9345 H       1  UNL1        0.1189
@<TRIPOS>BOND
     1    22    23    1
     2    23    21    1
     3    21    20    1
     4    20    19    1
     5    19     1    1
     6     1     2   ar
     7     2     3   ar
     8     3     6    1
     9     6     7    2
    10     7     8    1
    11     8     9    2
    12     9    10    1
    13    10    11    2
    14    11    12    1
    15    12    13    2
    16    13    14    1
    17     3     4   ar
    18     4    15    1
    19    15    16    1
    20    15    17    1
    21    15    18    1
    22     4     5   ar
    23     5     1   ar
    24    14     6    1
    25    13     9    1
    26    22    24    1
    27    22    25    1
@<TRIPOS>MOLECULE
*****
 25 27 0 0 0
SMALL
GASTEIGER

@<TRIPOS>ATOM
      1 N         141.6361  140.1104  169.1490 N.ar    1  UNL1       -0.2495
      2 C         140.4860  139.9998  168.1924 C.ar    1  UNL1        0.0962
      3 C         141.0361  139.6289  166.8471 C.ar    1  UNL1        0.0385
      4 C         142.5262  139.5104  166.9723 C.ar    1  UNL1        0.1733
      5 N         142.8970  139.8079  168.3949 N.ar    1  UNL1       -0.1653
      6 C         140.2365  139.4143  165.5962 C.2     1  UNL1       -0.0132
      7 C         139.9248  138.0215  165.1350 C.2     1  UNL1       -0.0038
      8 C         139.1252  137.8069  163.8841 C.2     1  UNL1        0.0009
      9 C         138.6374  138.9853  163.0945 C.2     1  UNL1        0.0154
     10 C         137.8342  139.0840  161.8315 C.2     1  UNL1        0.0218
     11 C         137.6495  140.5379  161.5122 C.2     1  UNL1        0.0985
     12 N         138.3386  141.3378  162.5778 N.2     1  UNL1       -0.2478
     13 C         138.9492  140.3781  163.5557 C.2     1  UNL1        0.0634
     14 C         139.7487  140.5927  164.8066 C.3     1  UNL1        0.0721
     15 C         143.4782  139.1564  165.8685 C.3     1  UNL1        0.4365
     16 F         144.4303  138.8023  164.7648 F       1  UNL1       -0.1643
     17 F         143.5204  137.7396  166.3593 F       1  UNL1       -0.1643
     18 F         143.4361  140.5731  165.3777 F       1  UNL1       -0.1643
     19 C         141.5419  140.4618  170.6043 C.3     1  UNL1        0.1275
     20 C         141.7461  141.8800  171.0481 C.3     1  UNL1        0.0278
     21 C         141.7742  142.9861  170.0355 C.3     1  UNL1        0.0189
     22 N         140.0093  144.8700  170.3287 N.3     1  UNL1       -0.3211
     23 C         140.4962  143.6466  169.6105 C.3     1  UNL1        0.0652
     24 H         139.1331  145.1834  169.9110 H       1  UNL1        0.1189
     25 H         140.7068  145.6101  170.2510 H       1  UNL1        0.1189
@<TRIPOS>BOND
     1    22    23    1
     2    23    21    1
     3    21    20    1
     4    20    19    1
     5    19     1    1
     6     1     2   ar
     7     2     3   ar
     8     3     6    1
     9     6     7    2
    10     7     8    1
    11     8     9    2
    12     9    10    1
    13    10    11    2
    14    11    12    1
    15    12    13    2
    16    13    14    1
    17     3     4   ar
    18     4    15    1
    19    15    16    1
    20    15    17    1
    21    15    18    1
    22     4     5   ar
    23     5     1   ar
    24    14     6    1
    25    13     9    1
    26    22    24    1
    27    22    25    1
@<TRIPOS>MOLECULE
*****
 25 27 0 0 0
SMALL
GASTEIGER

@<TRIPOS>ATOM
      1 N         143.0527  138.7550  169.9745 N.ar    1  UNL1       -0.2495
      2 C         142.6480  139.2049  168.6019 C.ar    1  UNL1        0.0962
      3 C         142.6293  140.7047  168.5925 C.ar    1  UNL1        0.0385
      4 C         143.0224  141.1818  169.9592 C.ar    1  UNL1        0.1733
      5 N         143.2841  139.9767  170.8133 N.ar    1  UNL1       -0.1653
      6 C         142.2789  141.5748  167.4219 C.2     1  UNL1       -0.0132
      7 C         143.2903  141.8229  166.3425 C.2     1  UNL1       -0.0038
      8 C         142.9400  142.6930  165.1719 C.2     1  UNL1        0.0009
      9 C         141.5781  143.3150  165.0809 C.2     1  UNL1        0.0154
     10 C         140.9505  144.2110  164.0546 C.2     1  UNL1        0.0218
     11 C         139.5511  144.5167  164.4998 C.2     1  UNL1        0.0985
     12 N         139.3138  143.8096  165.8013 N.2     1  UNL1       -0.2478
     13 C         140.5666  143.0670  166.1604 C.2     1  UNL1        0.0634
     14 C         140.9170  142.1969  167.3309 C.3     1  UNL1        0.0721
     15 C         143.1343  142.6127  170.3953 C.3     1  UNL1        0.4365
     16 F         143.2461  144.0435  170.8313 F       1  UNL1       -0.1643
     17 F         141.7474  142.5480  170.9629 F       1  UNL1       -0.1643
     18 F         144.5212  142.6773  169.8277 F       1  UNL1       -0.1643
     19 C         143.2001  137.3329  170.4284 C.3     1  UNL1        0.1275
     20 C         144.4400  136.9021  171.1544 C.3     1  UNL1        0.0278
     21 C         144.6065  135.4705  171.5700 C.3     1  UNL1        0.0189
     22 N         147.1159  135.6169  172.2271 N.3     1  UNL1       -0.3211
     23 C         145.7378  135.0786  172.4737 C.3     1  UNL1        0.0652
     24 H         147.7555  135.2495  172.9315 H       1  UNL1        0.1189
     25 H         147.0980  136.6353  172.2823 H       1  UNL1        0.1189
@<TRIPOS>BOND
     1    22    23    1
     2    23    21    1
     3    21    20    1
     4    20    19    1
     5    19     1    1
     6     1     2   ar
     7     2     3   ar
     8     3     6    1
     9     6     7    2
    10     7     8    1
    11     8     9    2
    12     9    10    1
    13    10    11    2
    14    11    12    1
    15    12    13    2
    16    13    14    1
    17     3     4   ar
    18     4    15    1
    19    15    16    1
    20    15    17    1
    21    15    18    1
    22     4     5   ar
    23     5     1   ar
    24    14     6    1
    25    13     9    1
    26    22    24    1
    27    22    25    1
@<TRIPOS>MOLECULE
*****
 25 27 0 0 0
SMALL
GASTEIGER

@<TRIPOS>ATOM
      1 N         141.2608  142.5806  162.5582 N.ar    1  UNL1       -0.2495
      2 C         141.4694  141.7882  163.8147 C.ar    1  UNL1        0.0962
      3 C         140.4289  142.2124  164.8083 C.ar    1  UNL1        0.0385
      4 C         139.5772  143.2670  164.1659 C.ar    1  UNL1        0.1733
      5 N         140.0914  143.4945  162.7753 N.ar    1  UNL1       -0.1653
      6 C         140.2681  141.6762  166.2000 C.2     1  UNL1       -0.0132
      7 C         139.5114  140.4017  166.4299 C.2     1  UNL1       -0.0038
      8 C         139.3507  139.8655  167.8216 C.2     1  UNL1        0.0009
      9 C         139.9467  140.6039  168.9833 C.2     1  UNL1        0.0154
     10 C         139.9519  140.3211  170.4564 C.2     1  UNL1        0.0218
     11 C         140.7118  141.4209  171.1368 C.2     1  UNL1        0.0985
     12 N         141.1764  142.3834  170.0842 N.2     1  UNL1       -0.2478
     13 C         140.7035  141.8785  168.7533 C.2     1  UNL1        0.0634
     14 C         140.8642  142.4146  167.3616 C.3     1  UNL1        0.0721
     15 C         138.4153  143.9705  164.8025 C.3     1  UNL1        0.4365
     16 F         137.2535  144.6739  165.4390 F       1  UNL1       -0.1643
     17 F         139.2724  145.1802  165.0300 F       1  UNL1       -0.1643
     18 F         137.5581  142.7607  164.5749 F       1  UNL1       -0.1643
     19 C         142.0782  142.4772  161.3047 C.3     1  UNL1        0.1275
     20 C         143.3333  143.2857  161.1589 C.3     1  UNL1        0.0278
     21 C         144.6715  142.6112  161.2223 C.3     1  UNL1        0.0189
     22 N         146.1920  141.8231  163.1759 N.3     1  UNL1       -0.3211
     23 C         144.9703  141.6396  162.3254 C.3     1  UNL1        0.0652
     24 H         146.2379  141.0775  163.8705 H       1  UNL1        0.1189
     25 H         146.1447  142.7257  163.6487 H       1  UNL1        0.1189
@<TRIPOS>BOND
     1    22    23    1
     2    23    21    1
     3    21    20    1
     4    20    19    1
     5    19     1    1
     6     1     2   ar
     7     2     3   ar
     8     3     6    1
     9     6     7    2
    10     7     8    1
    11     8     9    2
    12     9    10    1
    13    10    11    2
    14    11    12    1
    15    12    13    2
    16    13    14    1
    17     3     4   ar
    18     4    15    1
    19    15    16    1
    20    15    17    1
    21    15    18    1
    22     4     5   ar
    23     5     1   ar
    24    14     6    1
    25    13     9    1
    26    22    24    1
    27    22    25    1
@<TRIPOS>MOLECULE
*****
 25 27 0 0 0
SMALL
GASTEIGER

@<TRIPOS>ATOM
      1 N         138.7391  140.7796  163.2359 N.ar    1  UNL1       -0.2495
      2 C         139.7807  141.1382  164.2541 C.ar    1  UNL1        0.0962
      3 C         139.6946  140.1448  165.3748 C.ar    1  UNL1        0.0385
      4 C         138.5999  139.1724  165.0492 C.ar    1  UNL1        0.1733
      5 N         138.0093  139.5647  163.7274 N.ar    1  UNL1       -0.1653
      6 C         140.5526  140.1270  166.6051 C.2     1  UNL1       -0.0132
      7 C         141.8850  139.4386  166.5803 C.2     1  UNL1       -0.0038
      8 C         142.7430  139.4208  167.8106 C.2     1  UNL1        0.0009
      9 C         142.2686  140.0915  169.0656 C.2     1  UNL1        0.0154
     10 C         142.8909  140.2372  170.4226 C.2     1  UNL1        0.0218
     11 C         141.9431  141.0158  171.2860 C.2     1  UNL1        0.0985
     12 N         140.7350  141.3512  170.4626 N.2     1  UNL1       -0.2478
     13 C         140.9361  140.7800  169.0903 C.2     1  UNL1        0.0634
     14 C         140.0782  140.7977  167.8600 C.3     1  UNL1        0.0721
     15 C         138.1710  138.0114  165.8968 C.3     1  UNL1        0.4365
     16 F         137.7422  136.8505  166.7443 F       1  UNL1       -0.1643
     17 F         138.9714  137.0839  165.0313 F       1  UNL1       -0.1643
     18 F         137.3706  138.9389  166.7623 F       1  UNL1       -0.1643
     19 C         138.4738  141.5081  161.9518 C.3     1  UNL1        0.1275
     20 C         138.9885  140.9553  160.6558 C.3     1  UNL1        0.0278
     21 C         138.5165  139.6167  160.1713 C.3     1  UNL1        0.0189
     22 N         139.3271  137.6452  161.6566 N.3     1  UNL1       -0.3211
     23 C         139.3771  138.4032  160.3633 C.3     1  UNL1        0.0652
     24 H         139.9714  136.8556  161.6130 H       1  UNL1        0.1189
     25 H         138.3793  137.3023  161.8132 H       1  UNL1        0.1189
@<TRIPOS>BOND
     1    22    23    1
     2    23    21    1
     3    21    20    1
     4    20    19    1
     5    19     1    1
     6     1     2   ar
     7     2     3   ar
     8     3     6    1
     9     6     7    2
    10     7     8    1
    11     8     9    2
    12     9    10    1
    13    10    11    2
    14    11    12    1
    15    12    13    2
    16    13    14    1
    17     3     4   ar
    18     4    15    1
    19    15    16    1
    20    15    17    1
    21    15    18    1
    22     4     5   ar
    23     5     1   ar
    24    14     6    1
    25    13     9    1
    26    22    24    1
    27    22    25    1
@<TRIPOS>MOLECULE
*****
 25 27 0 0 0
SMALL
GASTEIGER

@<TRIPOS>ATOM
      1 N         140.6662  139.9679  169.0614 N.ar    1  UNL1       -0.2495
      2 C         141.7672  139.6342  168.0989 C.ar    1  UNL1        0.0962
      3 C         141.1827  139.6059  166.7178 C.ar    1  UNL1        0.0385
      4 C         139.7204  139.9221  166.8268 C.ar    1  UNL1        0.1733
      5 N         139.4012  140.1458  168.2752 N.ar    1  UNL1       -0.1653
      6 C         141.9293  139.3129  165.4501 C.2     1  UNL1       -0.0132
      7 C         143.3493  139.7697  165.2934 C.2     1  UNL1       -0.0038
      8 C         144.0959  139.4767  164.0257 C.2     1  UNL1        0.0009
      9 C         143.4223  138.7268  162.9149 C.2     1  UNL1        0.0154
     10 C         143.9012  138.2953  161.5605 C.2     1  UNL1        0.0218
     11 C         142.7771  137.5717  160.8803 C.2     1  UNL1        0.0985
     12 N         141.6034  137.5560  161.8142 N.2     1  UNL1       -0.2478
     13 C         142.0022  138.2699  163.0717 C.2     1  UNL1        0.0634
     14 C         141.2557  138.5630  164.3393 C.3     1  UNL1        0.0721
     15 C         138.7480  140.0007  165.6872 C.3     1  UNL1        0.4365
     16 F         137.7757  140.0793  164.5478 F       1  UNL1       -0.1643
     17 F         138.2900  138.6031  165.9817 F       1  UNL1       -0.1643
     18 F         139.2060  141.3984  165.3928 F       1  UNL1       -0.1643
     19 C         140.8057  140.1004  170.5491 C.3     1  UNL1        0.1275
     20 C         140.9082  141.4598  171.1746 C.3     1  UNL1        0.0278
     21 C         141.4373  142.6145  170.3768 C.3     1  UNL1        0.0189
     22 N         143.4059  144.0633  171.2575 N.3     1  UNL1       -0.3211
     23 C         142.9020  142.9370  170.4048 C.3     1  UNL1        0.0652
     24 H         144.4179  144.1404  171.1558 H       1  UNL1        0.1189
     25 H         143.1754  143.8799  172.2341 H       1  UNL1        0.1189
@<TRIPOS>BOND
     1    22    23    1
     2    23    21    1
     3    21    20    1
     4    20    19    1
     5    19     1    1
     6     1     2   ar
     7     2     3   ar
     8     3     6    1
     9     6     7    2
    10     7     8    1
    11     8     9    2
    12     9    10    1
    13    10    11    2
    14    11    12    1
    15    12    13    2
    16    13    14    1
    17     3     4   ar
    18     4    15    1
    19    15    16    1
    20    15    17    1
    21    15    18    1
    22     4     5   ar
    23     5     1   ar
    24    14     6    1
    25    13     9    1
    26    22    24    1
    27    22    25    1
@<TRIPOS>MOLECULE
*****
 25 27 0 0 0
SMALL
GASTEIGER

@<TRIPOS>ATOM
      1 N         141.7308  139.8989  169.1755 N.ar    1  UNL1       -0.2495
      2 C         140.5665  140.0750  168.2463 C.ar    1  UNL1        0.0962
      3 C         141.0461  139.8185  166.8484 C.ar    1  UNL1        0.0385
      4 C         142.5069  139.4838  166.9136 C.ar    1  UNL1        0.1733
      5 N         142.9300  139.5335  168.3518 N.ar    1  UNL1       -0.1653
      6 C         140.2116  139.8849  165.6037 C.2     1  UNL1       -0.0132
      7 C         139.7135  141.2087  165.1044 C.2     1  UNL1       -0.0038
      8 C         138.8789  141.2751  163.8597 C.2     1  UNL1        0.0009
      9 C         138.5425  140.0176  163.1145 C.2     1  UNL1        0.0154
     10 C         137.7456  139.7727  161.8675 C.2     1  UNL1        0.0218
     11 C         137.7512  138.2974  161.5962 C.2     1  UNL1        0.0985
     12 N         138.5515  137.6306  162.6754 N.2     1  UNL1       -0.2478
     13 C         139.0406  138.6937  163.6138 C.2     1  UNL1        0.0634
     14 C         139.8751  138.6274  164.8584 C.3     1  UNL1        0.0721
     15 C         143.3895  139.1568  165.7457 C.3     1  UNL1        0.4365
     16 F         144.2721  138.8299  164.5777 F       1  UNL1       -0.1643
     17 F         143.5492  140.6200  165.4567 F       1  UNL1       -0.1643
     18 F         143.2299  137.6936  166.0346 F       1  UNL1       -0.1643
     19 C         141.7012  140.0600  170.6665 C.3     1  UNL1        0.1275
     20 C         141.2827  141.3672  171.2715 C.3     1  UNL1        0.0278
     21 C         141.6933  142.6577  170.6267 C.3     1  UNL1        0.0189
     22 N         143.7376  142.6544  169.0233 N.3     1  UNL1       -0.3211
     23 C         143.1442  142.9400  170.3709 C.3     1  UNL1        0.0652
     24 H         144.7265  142.9044  169.0274 H       1  UNL1        0.1189
     25 H         143.2511  143.2032  168.3144 H       1  UNL1        0.1189
@<TRIPOS>BOND
     1    22    23    1
     2    23    21    1
     3    21    20    1
     4    20    19    1
     5    19     1    1
     6     1     2   ar
     7     2     3   ar
     8     3     6    1
     9     6     7    2
    10     7     8    1
    11     8     9    2
    12     9    10    1
    13    10    11    2
    14    11    12    1
    15    12    13    2
    16    13    14    1
    17     3     4   ar
    18     4    15    1
    19    15    16    1
    20    15    17    1
    21    15    18    1
    22     4     5   ar
    23     5     1   ar
    24    14     6    1
    25    13     9    1
    26    22    24    1
    27    22    25    1
@<TRIPOS>MOLECULE
*****
 25 27 0 0 0
SMALL
GASTEIGER

@<TRIPOS>ATOM
      1 N         141.2084  143.1075  162.6170 N.ar    1  UNL1       -0.2495
      2 C         141.4551  142.2471  163.8208 C.ar    1  UNL1        0.0962
      3 C         140.3701  142.5243  164.8188 C.ar    1  UNL1        0.0385
      4 C         139.4530  143.5560  164.2319 C.ar    1  UNL1        0.1733
      5 N         139.9710  143.9164  162.8711 N.ar    1  UNL1       -0.1653
      6 C         140.2274  141.8825  166.1671 C.2     1  UNL1       -0.0132
      7 C         139.5083  140.5732  166.3022 C.2     1  UNL1       -0.0038
      8 C         139.3655  139.9314  167.6505 C.2     1  UNL1        0.0009
      9 C         139.9420  140.5991  168.8636 C.2     1  UNL1        0.0154
     10 C         139.9579  140.2087  170.3119 C.2     1  UNL1        0.0218
     11 C         140.6869  141.2769  171.0718 C.2     1  UNL1        0.0985
     12 N         141.1216  142.3274  170.0933 N.2     1  UNL1       -0.2478
     13 C         140.6612  141.9085  168.7286 C.2     1  UNL1        0.0634
     14 C         140.8039  142.5502  167.3803 C.3     1  UNL1        0.0721
     15 C         138.2321  144.1270  164.8902 C.3     1  UNL1        0.4365
     16 F         137.0112  144.6980  165.5485 F       1  UNL1       -0.1643
     17 F         137.4458  142.9167  164.4819 F       1  UNL1       -0.1643
     18 F         139.0183  145.3374  165.2986 F       1  UNL1       -0.1643
     19 C         142.0511  143.1512  161.3769 C.3     1  UNL1        0.1275
     20 C         141.5284  142.5756  160.0942 C.3     1  UNL1        0.0278
     21 C         140.5571  143.3587  159.2616 C.3     1  UNL1        0.0189
     22 N         138.2866  142.9599  160.4599 N.3     1  UNL1       -0.3211
     23 C         139.1146  142.9506  159.2093 C.3     1  UNL1        0.0652
     24 H         137.3376  142.6565  160.2417 H       1  UNL1        0.1189
     25 H         138.2616  143.9045  160.8441 H       1  UNL1        0.1189
@<TRIPOS>BOND
     1    22    23    1
     2    23    21    1
     3    21    20    1
     4    20    19    1
     5    19     1    1
     6     1     2   ar
     7     2     3   ar
     8     3     6    1
     9     6     7    2
    10     7     8    1
    11     8     9    2
    12     9    10    1
    13    10    11    2
    14    11    12    1
    15    12    13    2
    16    13    14    1
    17     3     4   ar
    18     4    15    1
    19    15    16    1
    20    15    17    1
    21    15    18    1
    22     4     5   ar
    23     5     1   ar
    24    14     6    1
    25    13     9    1
    26    22    24    1
    27    22    25    1
