@<TRIPOS>MOLECULE
*****
 35 39 0 0 0
SMALL
GASTEIGER

@<TRIPOS>ATOM
      1 C         139.9469  138.4025  163.1147 C.2     1  UNL1        0.2294
      2 O         138.4918  138.2619  162.7787 O.2     1  UNL1       -0.2745
      3 N         140.9065  138.9264  162.0877 N.am    1  UNL1       -0.2764
      4 C         140.4110  139.3097  160.7247 C.3     1  UNL1        0.1107
      5 C         141.3707  139.8336  159.6978 C.3     1  UNL1        0.0939
      6 N         142.8258  139.9742  160.0338 N.3     1  UNL1       -0.2695
      7 C         143.3213  139.5909  161.3967 C.3     1  UNL1        0.0939
      8 C         142.3616  139.0670  162.4237 C.3     1  UNL1        0.1107
      9 C         140.4424  138.0192  164.4776 C.3     1  UNL1        0.1001
     10 C         141.0464  136.6648  164.7024 C.3     1  UNL1        0.0144
     11 C         138.0469  137.9533  166.2823 C.3     1  UNL1        0.0309
     12 C         139.1361  138.9574  166.5180 C.ar    1  UNL1       -0.0208
     13 C         139.0276  139.9286  167.6560 C.ar    1  UNL1        0.0344
     14 C         140.1168  140.9326  167.8917 C.ar    1  UNL1        0.1669
     15 N         141.3145  140.9655  166.9893 N.ar    1  UNL1       -0.2253
     16 C         141.4231  139.9943  165.8513 C.ar    1  UNL1        0.0964
     17 C         140.3339  138.9903  165.6156 C.ar    1  UNL1        0.0015
     18 N         140.0083  141.9037  169.0297 N.ar    1  UNL1       -0.1708
     19 C         140.4084  143.3490  168.9966 C.ar    1  UNL1        0.2272
     20 N         140.1279  143.9386  170.3471 N.ar    1  UNL1       -0.1044
     21 N         139.5545  142.8578  171.2148 N.ar    1  UNL1       -0.0222
     22 N         139.4806  141.6001  170.4006 N.ar    1  UNL1       -0.0371
     23 C         143.7854  140.4982  159.0068 C.3     1  UNL1        0.0769
     24 C         144.0035  141.9758  158.8690 C.3     1  UNL1        0.0433
     25 C         143.0480  142.9381  159.5103 C.ar    1  UNL1       -0.0249
     26 C         141.8755  143.4601  158.7342 C.ar    1  UNL1       -0.0043
     27 C         140.9200  144.4223  159.3754 C.ar    1  UNL1        0.0059
     28 C         141.1371  144.8624  160.7929 C.ar    1  UNL1        0.0748
     29 C         142.3096  144.3403  161.5691 C.ar    1  UNL1        0.0233
     30 C         143.2651  143.3781  160.9279 C.ar    1  UNL1       -0.0260
     31 C         144.4378  142.8560  161.7040 C.3     1  UNL1        0.0305
     32 C         142.2666  144.9489  162.9394 C.3     1  UNL1        0.2352
     33 O         141.0674  145.8472  163.0101 O.3     1  UNL1       -0.4404
     34 C         140.3693  145.7938  161.6835 C.2     1  UNL1        0.3413
     35 O         139.1224  146.5405  161.3126 O.2     1  UNL1       -0.2449
@<TRIPOS>BOND
     1    11    12    1
     2    12    13   ar
     3    13    14   ar
     4    14    18    1
     5    18    19   ar
     6    19    20   ar
     7    20    21   ar
     8    21    22   ar
     9    14    15   ar
    10    15    16   ar
    11    16    17   ar
    12    17     9    1
    13     9    10    1
    14     9     1    1
    15     1     2    2
    16     1     3   am
    17     3     4    1
    18     4     5    1
    19     5     6    1
    20     6    23    1
    21    23    24    1
    22    24    25    1
    23    25    26   ar
    24    26    27   ar
    25    27    28   ar
    26    28    29   ar
    27    29    30   ar
    28    30    31    1
    29    29    32    1
    30    32    33    1
    31    33    34    1
    32    34    35    2
    33     6     7    1
    34     7     8    1
    35    17    12   ar
    36     8     3    1
    37    22    18   ar
    38    30    25   ar
    39    34    28    1
@<TRIPOS>MOLECULE
*****
 35 39 0 0 0
SMALL
GASTEIGER

@<TRIPOS>ATOM
      1 C         139.6663  138.5573  162.9524 C.2     1  UNL1        0.2294
      2 O         138.2425  139.0290  162.9329 O.2     1  UNL1       -0.2745
      3 N         140.4438  138.4662  161.6729 N.am    1  UNL1       -0.2764
      4 C         139.7976  138.8468  160.3738 C.3     1  UNL1        0.1107
      5 C         140.5751  138.7557  159.0943 C.3     1  UNL1        0.0939
      6 N         141.9989  138.2840  159.1138 N.3     1  UNL1       -0.2695
      7 C         142.6451  137.9034  160.4128 C.3     1  UNL1        0.0939
      8 C         141.8675  137.9945  161.6924 C.3     1  UNL1        0.1107
      9 C         140.3126  138.1767  164.2514 C.3     1  UNL1        0.1001
     10 C         141.0304  136.8655  164.3760 C.3     1  UNL1        0.0144
     11 C         138.0838  137.9110  166.2418 C.3     1  UNL1        0.0309
     12 C         139.1266  138.9744  166.4210 C.ar    1  UNL1       -0.0208
     13 C         139.0550  139.9049  167.5953 C.ar    1  UNL1        0.0344
     14 C         140.0977  140.9682  167.7744 C.ar    1  UNL1        0.1669
     15 N         141.2121  141.1009  166.7791 N.ar    1  UNL1       -0.2253
     16 C         141.2837  140.1704  165.6048 C.ar    1  UNL1        0.0964
     17 C         140.2409  139.1072  165.4257 C.ar    1  UNL1        0.0015
     18 N         140.0261  141.8987  168.9487 N.ar    1  UNL1       -0.1708
     19 C         140.4251  143.3446  168.9534 C.ar    1  UNL1        0.2272
     20 N         140.1885  143.8862  170.3321 N.ar    1  UNL1       -0.1044
     21 N         139.6434  142.7750  171.1794 N.ar    1  UNL1       -0.0222
     22 N         139.5430  141.5466  170.3244 N.ar    1  UNL1       -0.0371
     23 C         142.7764  138.1930  157.8343 C.3     1  UNL1        0.0769
     24 C         142.2361  137.3969  156.6834 C.3     1  UNL1        0.0433
     25 C         142.4063  135.9067  156.6567 C.ar    1  UNL1       -0.0249
     26 C         143.3324  135.2401  157.6302 C.ar    1  UNL1       -0.0043
     27 C         143.5026  133.7501  157.6035 C.ar    1  UNL1        0.0059
     28 C         142.7467  132.9266  156.6033 C.ar    1  UNL1        0.0748
     29 C         141.8205  133.5933  155.6297 C.ar    1  UNL1        0.0233
     30 C         141.6503  135.0834  155.6564 C.ar    1  UNL1       -0.0260
     31 C         140.7242  135.7501  154.6829 C.3     1  UNL1        0.0305
     32 C         141.2127  132.5290  154.7650 C.3     1  UNL1        0.2352
     33 O         141.7632  131.2046  155.2041 O.3     1  UNL1       -0.4404
     34 C         142.7112  131.4503  156.3402 C.2     1  UNL1        0.3413
     35 O         143.4875  130.4035  157.0829 O.2     1  UNL1       -0.2449
@<TRIPOS>BOND
     1    11    12    1
     2    12    13   ar
     3    13    14   ar
     4    14    18    1
     5    18    19   ar
     6    19    20   ar
     7    20    21   ar
     8    21    22   ar
     9    14    15   ar
    10    15    16   ar
    11    16    17   ar
    12    17     9    1
    13     9    10    1
    14     9     1    1
    15     1     2    2
    16     1     3   am
    17     3     4    1
    18     4     5    1
    19     5     6    1
    20     6    23    1
    21    23    24    1
    22    24    25    1
    23    25    26   ar
    24    26    27   ar
    25    27    28   ar
    26    28    29   ar
    27    29    30   ar
    28    30    31    1
    29    29    32    1
    30    32    33    1
    31    33    34    1
    32    34    35    2
    33     6     7    1
    34     7     8    1
    35    17    12   ar
    36     8     3    1
    37    22    18   ar
    38    30    25   ar
    39    34    28    1
@<TRIPOS>MOLECULE
*****
 35 39 0 0 0
SMALL
GASTEIGER

@<TRIPOS>ATOM
      1 C         143.3974  138.7914  164.6998 C.2     1  UNL1        0.2294
      2 O         144.6022  139.1569  163.8845 O.2     1  UNL1       -0.2745
      3 N         142.0862  138.5238  164.0222 N.am    1  UNL1       -0.2764
      4 C         141.9798  138.6217  162.5291 C.3     1  UNL1        0.1107
      5 C         140.6686  138.3541  161.8516 C.3     1  UNL1        0.0939
      6 N         139.4638  137.9886  162.6670 N.3     1  UNL1       -0.2695
      7 C         139.5701  137.8907  164.1600 C.3     1  UNL1        0.0939
      8 C         140.8814  138.1584  164.8376 C.3     1  UNL1        0.1107
      9 C         143.5038  138.6935  166.1929 C.3     1  UNL1        0.1001
     10 C         144.3638  137.6341  166.8155 C.3     1  UNL1        0.0144
     11 C         143.4435  141.6120  165.5011 C.3     1  UNL1        0.0309
     12 C         142.7199  141.1144  166.7173 C.ar    1  UNL1       -0.0208
     13 C         141.9663  142.0760  167.5875 C.ar    1  UNL1        0.0344
     14 C         141.2428  141.5783  168.8036 C.ar    1  UNL1        0.1669
     15 N         141.2729  140.1190  169.1494 N.ar    1  UNL1       -0.2253
     16 C         142.0266  139.1574  168.2792 C.ar    1  UNL1        0.0964
     17 C         142.7501  139.6551  167.0631 C.ar    1  UNL1        0.0015
     18 N         140.4891  142.5399  169.6738 N.ar    1  UNL1       -0.1708
     19 C         140.6288  144.0333  169.6643 C.ar    1  UNL1        0.2272
     20 N         139.6894  144.5933  170.6910 N.ar    1  UNL1       -0.1044
     21 N         138.9692  143.4460  171.3351 N.ar    1  UNL1       -0.0222
     22 N         139.4634  142.1768  170.7064 N.ar    1  UNL1       -0.0371
     23 C         138.1526  137.7210  161.9893 C.3     1  UNL1        0.0769
     24 C         137.3719  138.8542  161.3923 C.3     1  UNL1        0.0433
     25 C         137.7835  140.2717  161.6599 C.ar    1  UNL1       -0.0249
     26 C         137.5360  140.8829  163.0071 C.ar    1  UNL1       -0.0043
     27 C         137.9476  142.3002  163.2747 C.ar    1  UNL1        0.0059
     28 C         138.6068  143.1064  162.1951 C.ar    1  UNL1        0.0748
     29 C         138.8544  142.4951  160.8478 C.ar    1  UNL1        0.0233
     30 C         138.4427  141.0778  160.5802 C.ar    1  UNL1       -0.0260
     31 C         138.6903  140.4664  159.2329 C.3     1  UNL1        0.0305
     32 C         139.5188  143.5271  159.9856 C.3     1  UNL1        0.2352
     33 O         139.6819  144.7762  160.8000 O.3     1  UNL1       -0.4404
     34 C         139.1183  144.5162  162.1655 C.2     1  UNL1        0.3413
     35 O         139.0739  145.4942  163.3019 O.2     1  UNL1       -0.2449
@<TRIPOS>BOND
     1    11    12    1
     2    12    13   ar
     3    13    14   ar
     4    14    18    1
     5    18    19   ar
     6    19    20   ar
     7    20    21   ar
     8    21    22   ar
     9    14    15   ar
    10    15    16   ar
    11    16    17   ar
    12    17     9    1
    13     9    10    1
    14     9     1    1
    15     1     2    2
    16     1     3   am
    17     3     4    1
    18     4     5    1
    19     5     6    1
    20     6    23    1
    21    23    24    1
    22    24    25    1
    23    25    26   ar
    24    26    27   ar
    25    27    28   ar
    26    28    29   ar
    27    29    30   ar
    28    30    31    1
    29    29    32    1
    30    32    33    1
    31    33    34    1
    32    34    35    2
    33     6     7    1
    34     7     8    1
    35    17    12   ar
    36     8     3    1
    37    22    18   ar
    38    30    25   ar
    39    34    28    1
@<TRIPOS>MOLECULE
*****
 35 39 0 0 0
SMALL
GASTEIGER

@<TRIPOS>ATOM
      1 C         143.1106  139.1377  163.3389 C.2     1  UNL1        0.2294
      2 O         142.6471  137.7138  163.2510 O.2     1  UNL1       -0.2745
      3 N         142.7341  140.1165  162.2664 N.am    1  UNL1       -0.2764
      4 C         141.8941  139.6715  161.1061 C.3     1  UNL1        0.1107
      5 C         141.5176  140.6504  160.0337 C.3     1  UNL1        0.0939
      6 N         141.9811  142.0743  160.1216 N.3     1  UNL1       -0.2695
      7 C         142.8212  142.5193  161.2818 C.3     1  UNL1        0.0939
      8 C         143.1976  141.5404  162.3543 C.3     1  UNL1        0.1107
      9 C         143.9507  139.5827  164.4992 C.3     1  UNL1        0.1001
     10 C         145.4468  139.5363  164.4032 C.3     1  UNL1        0.0144
     11 C         143.7051  137.7649  166.8730 C.3     1  UNL1        0.0309
     12 C         143.1717  139.1653  166.9423 C.ar    1  UNL1       -0.0208
     13 C         142.5155  139.6567  168.1985 C.ar    1  UNL1        0.0344
     14 C         141.9822  141.0569  168.2677 C.ar    1  UNL1        0.1669
     15 N         142.1050  141.9658  167.0807 N.ar    1  UNL1       -0.2253
     16 C         142.7612  141.4744  165.8245 C.ar    1  UNL1        0.0964
     17 C         143.2945  140.0741  165.7553 C.ar    1  UNL1        0.0015
     18 N         141.3260  141.5483  169.5238 N.ar    1  UNL1       -0.1708
     19 C         141.6389  141.0926  170.9183 C.ar    1  UNL1        0.2272
     20 N         140.7480  141.8444  171.8624 N.ar    1  UNL1       -0.1044
     21 N         139.8846  142.7646  171.0515 N.ar    1  UNL1       -0.0222
     22 N         140.2419  142.5817  169.6061 N.ar    1  UNL1       -0.0371
     23 C         141.6046  143.0531  159.0491 C.3     1  UNL1        0.0769
     24 C         140.5308  144.0689  159.3042 C.3     1  UNL1        0.0433
     25 C         139.9833  144.2499  160.6891 C.ar    1  UNL1       -0.0249
     26 C         140.4791  145.3731  161.5507 C.ar    1  UNL1       -0.0043
     27 C         139.9316  145.5541  162.9354 C.ar    1  UNL1        0.0059
     28 C         138.8883  144.6117  163.4585 C.ar    1  UNL1        0.0748
     29 C         138.3925  143.4885  162.5968 C.ar    1  UNL1        0.0233
     30 C         138.9400  143.3075  161.2121 C.ar    1  UNL1       -0.0260
     31 C         138.4442  142.1842  160.3504 C.3     1  UNL1        0.0305
     32 C         137.3658  142.7233  163.3781 C.3     1  UNL1        0.2352
     33 O         137.2271  143.3737  164.7226 O.3     1  UNL1       -0.4404
     34 C         138.1680  144.5408  164.7723 C.2     1  UNL1        0.3413
     35 O         138.3557  145.4732  165.9322 O.2     1  UNL1       -0.2449
@<TRIPOS>BOND
     1    11    12    1
     2    12    13   ar
     3    13    14   ar
     4    14    18    1
     5    18    19   ar
     6    19    20   ar
     7    20    21   ar
     8    21    22   ar
     9    14    15   ar
    10    15    16   ar
    11    16    17   ar
    12    17     9    1
    13     9    10    1
    14     9     1    1
    15     1     2    2
    16     1     3   am
    17     3     4    1
    18     4     5    1
    19     5     6    1
    20     6    23    1
    21    23    24    1
    22    24    25    1
    23    25    26   ar
    24    26    27   ar
    25    27    28   ar
    26    28    29   ar
    27    29    30   ar
    28    30    31    1
    29    29    32    1
    30    32    33    1
    31    33    34    1
    32    34    35    2
    33     6     7    1
    34     7     8    1
    35    17    12   ar
    36     8     3    1
    37    22    18   ar
    38    30    25   ar
    39    34    28    1
@<TRIPOS>MOLECULE
*****
 35 39 0 0 0
SMALL
GASTEIGER

@<TRIPOS>ATOM
      1 C         141.8647  144.5272  162.5244 C.2     1  UNL1        0.2294
      2 O         143.2172  144.7644  161.9207 O.2     1  UNL1       -0.2745
      3 N         141.7477  143.8673  163.8663 N.am    1  UNL1       -0.2764
      4 C         142.9831  143.4445  164.6046 C.3     1  UNL1        0.1107
      5 C         142.8660  142.7846  165.9465 C.3     1  UNL1        0.0939
      6 N         141.5135  142.5474  166.5502 N.3     1  UNL1       -0.2695
      7 C         140.2780  142.9701  165.8120 C.3     1  UNL1        0.0939
      8 C         140.3952  143.6301  164.4700 C.3     1  UNL1        0.1107
      9 C         140.6292  144.9499  161.7862 C.3     1  UNL1        0.1001
     10 C         139.9953  146.2765  162.0831 C.3     1  UNL1        0.0144
     11 C         141.3864  145.2618  158.9002 C.3     1  UNL1        0.0309
     12 C         140.4063  144.2019  159.3081 C.ar    1  UNL1       -0.0208
     13 C         139.8049  143.2981  158.2731 C.ar    1  UNL1        0.0344
     14 C         138.8249  142.2383  158.6812 C.ar    1  UNL1        0.1669
     15 N         138.4463  142.0824  160.1242 N.ar    1  UNL1       -0.2253
     16 C         139.0478  142.9863  161.1592 C.ar    1  UNL1        0.0964
     17 C         140.0278  144.0461  160.7512 C.ar    1  UNL1        0.0015
     18 N         138.2234  141.3344  157.6461 N.ar    1  UNL1       -0.1708
     19 C         136.9041  141.5339  156.9609 C.ar    1  UNL1        0.2272
     20 N         136.7010  140.3951  156.0059 N.ar    1  UNL1       -0.1044
     21 N         137.8948  139.4919  156.1009 N.ar    1  UNL1       -0.0222
     22 N         138.8358  140.0724  157.1146 N.ar    1  UNL1       -0.0371
     23 C         141.3965  141.8875  167.8921 C.3     1  UNL1        0.0769
     24 C         140.8861  140.4807  167.9941 C.3     1  UNL1        0.0433
     25 C         140.3859  139.7736  166.7693 C.ar    1  UNL1       -0.0249
     26 C         138.9236  139.7941  166.4361 C.ar    1  UNL1       -0.0043
     27 C         138.4234  139.0871  165.2114 C.ar    1  UNL1        0.0059
     28 C         139.3857  138.3596  164.3199 C.ar    1  UNL1        0.0748
     29 C         140.8481  138.3390  164.6531 C.ar    1  UNL1        0.0233
     30 C         141.3482  139.0461  165.8778 C.ar    1  UNL1       -0.0260
     31 C         142.8106  139.0256  166.2111 C.3     1  UNL1        0.0305
     32 C         141.5537  137.5450  163.5941 C.3     1  UNL1        0.2352
     33 O         140.5274  137.0748  162.6063 O.3     1  UNL1       -0.4404
     34 C         139.1875  137.5782  163.0549 C.2     1  UNL1        0.3413
     35 O         137.8792  137.3417  162.3604 O.2     1  UNL1       -0.2449
@<TRIPOS>BOND
     1    11    12    1
     2    12    13   ar
     3    13    14   ar
     4    14    18    1
     5    18    19   ar
     6    19    20   ar
     7    20    21   ar
     8    21    22   ar
     9    14    15   ar
    10    15    16   ar
    11    16    17   ar
    12    17     9    1
    13     9    10    1
    14     9     1    1
    15     1     2    2
    16     1     3   am
    17     3     4    1
    18     4     5    1
    19     5     6    1
    20     6    23    1
    21    23    24    1
    22    24    25    1
    23    25    26   ar
    24    26    27   ar
    25    27    28   ar
    26    28    29   ar
    27    29    30   ar
    28    30    31    1
    29    29    32    1
    30    32    33    1
    31    33    34    1
    32    34    35    2
    33     6     7    1
    34     7     8    1
    35    17    12   ar
    36     8     3    1
    37    22    18   ar
    38    30    25   ar
    39    34    28    1
@<TRIPOS>MOLECULE
*****
 35 39 0 0 0
SMALL
GASTEIGER

@<TRIPOS>ATOM
      1 C         138.5219  138.9289  164.5565 C.2     1  UNL1        0.2294
      2 O         138.4940  137.7900  163.5807 O.2     1  UNL1       -0.2745
      3 N         138.4005  140.3408  164.0649 N.am    1  UNL1       -0.2764
      4 C         138.2512  140.6139  162.5975 C.3     1  UNL1        0.1107
      5 C         138.1298  142.0259  162.1060 C.3     1  UNL1        0.0939
      6 N         138.1577  143.1648  163.0818 N.3     1  UNL1       -0.2695
      7 C         138.3070  142.8917  164.5492 C.3     1  UNL1        0.0939
      8 C         138.4284  141.4797  165.0407 C.3     1  UNL1        0.1107
      9 C         138.6713  138.6558  166.0239 C.3     1  UNL1        0.1001
     10 C         137.9191  137.5225  166.6561 C.3     1  UNL1        0.0144
     11 C         141.5566  138.9800  165.2692 C.3     1  UNL1        0.0309
     12 C         141.0154  139.6782  166.4816 C.ar    1  UNL1       -0.0208
     13 C         141.9169  140.5385  167.3167 C.ar    1  UNL1        0.0344
     14 C         141.3757  141.2365  168.5290 C.ar    1  UNL1        0.1669
     15 N         139.9330  141.0744  168.9063 N.ar    1  UNL1       -0.2253
     16 C         139.0315  140.2141  168.0712 C.ar    1  UNL1        0.0964
     17 C         139.5727  139.5160  166.8589 C.ar    1  UNL1        0.0015
     18 N         142.2772  142.0968  169.3640 N.ar    1  UNL1       -0.1708
     19 C         143.7690  142.1910  169.2401 C.ar    1  UNL1        0.2272
     20 N         144.2589  143.1663  170.2691 N.ar    1  UNL1       -0.1044
     21 N         143.0699  143.6749  171.0289 N.ar    1  UNL1       -0.0222
     22 N         141.8450  143.0139  170.4696 N.ar    1  UNL1       -0.0371
     23 C         138.0363  144.5767  162.5902 C.3     1  UNL1        0.0769
     24 C         139.2703  145.3784  162.2995 C.3     1  UNL1        0.0433
     25 C         140.6257  144.7640  162.4885 C.ar    1  UNL1       -0.0249
     26 C         141.2464  144.7220  163.8533 C.ar    1  UNL1       -0.0043
     27 C         142.6017  144.1076  164.0424 C.ar    1  UNL1        0.0059
     28 C         143.3362  143.5352  162.8665 C.ar    1  UNL1        0.0748
     29 C         142.7156  143.5772  161.5016 C.ar    1  UNL1        0.0233
     30 C         141.3603  144.1915  161.3125 C.ar    1  UNL1       -0.0260
     31 C         140.7395  144.2335  159.9476 C.3     1  UNL1        0.0305
     32 C         143.6712  142.9385  160.5379 C.3     1  UNL1        0.2352
     33 O         144.8826  142.5018  161.3072 O.3     1  UNL1       -0.4404
     34 C         144.6756  142.8706  162.7464 C.2     1  UNL1        0.3413
     35 O         145.6388  142.6189  163.8684 O.2     1  UNL1       -0.2449
@<TRIPOS>BOND
     1    11    12    1
     2    12    13   ar
     3    13    14   ar
     4    14    18    1
     5    18    19   ar
     6    19    20   ar
     7    20    21   ar
     8    21    22   ar
     9    14    15   ar
    10    15    16   ar
    11    16    17   ar
    12    17     9    1
    13     9    10    1
    14     9     1    1
    15     1     2    2
    16     1     3   am
    17     3     4    1
    18     4     5    1
    19     5     6    1
    20     6    23    1
    21    23    24    1
    22    24    25    1
    23    25    26   ar
    24    26    27   ar
    25    27    28   ar
    26    28    29   ar
    27    29    30   ar
    28    30    31    1
    29    29    32    1
    30    32    33    1
    31    33    34    1
    32    34    35    2
    33     6     7    1
    34     7     8    1
    35    17    12   ar
    36     8     3    1
    37    22    18   ar
    38    30    25   ar
    39    34    28    1
@<TRIPOS>MOLECULE
*****
 35 39 0 0 0
SMALL
GASTEIGER

@<TRIPOS>ATOM
      1 C         143.8769  140.4639  159.0504 C.2     1  UNL1        0.2294
      2 O         143.6537  138.9929  158.8602 O.2     1  UNL1       -0.2745
      3 N         144.0662  141.0215  160.4300 N.am    1  UNL1       -0.2764
      4 C         144.0323  140.1082  161.6194 C.3     1  UNL1        0.1107
      5 C         144.2216  140.6659  162.9989 C.3     1  UNL1        0.0939
      6 N         144.4449  142.1369  163.1891 N.3     1  UNL1       -0.2695
      7 C         144.4789  143.0503  161.9998 C.3     1  UNL1        0.0939
      8 C         144.2895  142.4926  160.6202 C.3     1  UNL1        0.1107
      9 C         143.9109  141.3774  157.8611 C.3     1  UNL1        0.1001
     10 C         142.6688  142.1040  157.4379 C.3     1  UNL1        0.0144
     11 C         144.4550  139.7134  155.4249 C.3     1  UNL1        0.0309
     12 C         145.4591  140.7321  155.8769 C.ar    1  UNL1       -0.0208
     13 C         146.7351  140.9189  155.1109 C.ar    1  UNL1        0.0344
     14 C         147.7390  141.9376  155.5629 C.ar    1  UNL1        0.1669
     15 N         147.4668  142.7696  156.7810 N.ar    1  UNL1       -0.2253
     16 C         146.1908  142.5828  157.5471 C.ar    1  UNL1        0.0964
     17 C         145.1869  141.5641  157.0950 C.ar    1  UNL1        0.0015
     18 N         149.0150  142.1244  154.7969 N.ar    1  UNL1       -0.1708
     19 C         149.1388  142.6990  153.4168 C.ar    1  UNL1        0.2272
     20 N         150.5916  142.6990  153.0434 N.ar    1  UNL1       -0.1044
     21 N         151.3657  142.1245  154.1926 N.ar    1  UNL1       -0.0222
     22 N         150.3913  141.7693  155.2763 N.ar    1  UNL1       -0.0371
     23 C         144.6342  142.6945  164.5687 C.3     1  UNL1        0.0769
     24 C         143.4423  143.1028  165.3827 C.3     1  UNL1        0.0433
     25 C         142.0612  142.9576  164.8154 C.ar    1  UNL1       -0.0249
     26 C         141.2993  141.6810  165.0139 C.ar    1  UNL1       -0.0043
     27 C         139.9183  141.5358  164.4466 C.ar    1  UNL1        0.0059
     28 C         139.2993  142.6673  163.6809 C.ar    1  UNL1        0.0748
     29 C         140.0612  143.9440  163.4823 C.ar    1  UNL1        0.0233
     30 C         141.4422  144.0892  164.0496 C.ar    1  UNL1       -0.0260
     31 C         142.2042  145.3660  163.8511 C.3     1  UNL1        0.0305
     32 C         139.1985  144.8802  162.6890 C.3     1  UNL1        0.2352
     33 O         137.9034  144.1820  162.3972 O.3     1  UNL1       -0.4404
     34 C         137.9656  142.8144  163.0102 C.2     1  UNL1        0.3413
     35 O         136.8841  141.7761  162.9612 O.2     1  UNL1       -0.2449
@<TRIPOS>BOND
     1    11    12    1
     2    12    13   ar
     3    13    14   ar
     4    14    18    1
     5    18    19   ar
     6    19    20   ar
     7    20    21   ar
     8    21    22   ar
     9    14    15   ar
    10    15    16   ar
    11    16    17   ar
    12    17     9    1
    13     9    10    1
    14     9     1    1
    15     1     2    2
    16     1     3   am
    17     3     4    1
    18     4     5    1
    19     5     6    1
    20     6    23    1
    21    23    24    1
    22    24    25    1
    23    25    26   ar
    24    26    27   ar
    25    27    28   ar
    26    28    29   ar
    27    29    30   ar
    28    30    31    1
    29    29    32    1
    30    32    33    1
    31    33    34    1
    32    34    35    2
    33     6     7    1
    34     7     8    1
    35    17    12   ar
    36     8     3    1
    37    22    18   ar
    38    30    25   ar
    39    34    28    1
@<TRIPOS>MOLECULE
*****
 35 39 0 0 0
SMALL
GASTEIGER

@<TRIPOS>ATOM
      1 C         143.2710  141.3906  162.6359 C.2     1  UNL1        0.2294
      2 O         143.1573  142.8848  162.5702 O.2     1  UNL1       -0.2745
      3 N         142.8229  140.5526  161.4752 N.am    1  UNL1       -0.2764
      4 C         142.2611  141.2089  160.2489 C.3     1  UNL1        0.1107
      5 C         141.8130  140.3709  159.0884 C.3     1  UNL1        0.0939
      6 N         141.9267  138.8767  159.1540 N.3     1  UNL1       -0.2695
      7 C         142.4885  138.2203  160.3802 C.3     1  UNL1        0.0939
      8 C         142.9366  139.0584  161.5409 C.3     1  UNL1        0.1107
      9 C         143.8328  140.7343  163.8621 C.3     1  UNL1        0.1001
     10 C         145.2539  140.2545  163.8715 C.3     1  UNL1        0.0144
     11 C         143.8381  142.8208  166.0176 C.3     1  UNL1        0.0309
     12 C         142.9761  141.6010  166.1566 C.ar    1  UNL1       -0.0208
     13 C         142.1168  141.4246  167.3733 C.ar    1  UNL1        0.0344
     14 C         141.2548  140.2049  167.5122 C.ar    1  UNL1        0.1669
     15 N         141.2522  139.1616  166.4344 N.ar    1  UNL1       -0.2253
     16 C         142.1115  139.3381  165.2177 C.ar    1  UNL1        0.0964
     17 C         142.9735  140.5578  165.0788 C.ar    1  UNL1        0.0015
     18 N         140.3955  140.0284  168.7289 N.ar    1  UNL1       -0.1708
     19 C         140.8808  139.9373  170.1453 C.ar    1  UNL1        0.2272
     20 N         139.6852  139.7646  171.0347 N.ar    1  UNL1       -0.1044
     21 N         138.4611  139.7490  170.1680 N.ar    1  UNL1       -0.0222
     22 N         138.9001  139.9120  168.7428 N.ar    1  UNL1       -0.0371
     23 C         141.4786  138.0387  157.9934 C.3     1  UNL1        0.0769
     24 C         142.4926  137.4465  157.0601 C.3     1  UNL1        0.0433
     25 C         142.5994  135.9572  156.9158 C.ar    1  UNL1       -0.0249
     26 C         143.5120  135.1799  157.8173 C.ar    1  UNL1       -0.0043
     27 C         143.6188  133.6907  157.6730 C.ar    1  UNL1        0.0059
     28 C         142.8130  132.9788  156.6271 C.ar    1  UNL1        0.0748
     29 C         141.9003  133.7561  155.7256 C.ar    1  UNL1        0.0233
     30 C         141.7935  135.2453  155.8699 C.ar    1  UNL1       -0.0260
     31 C         140.8808  136.0228  154.9684 C.3     1  UNL1        0.0305
     32 C         141.2344  132.7878  154.7935 C.3     1  UNL1        0.2352
     33 O         141.7355  131.4120  155.1190 O.3     1  UNL1       -0.4404
     34 C         142.7111  131.5300  156.2522 C.2     1  UNL1        0.3413
     35 O         143.4544  130.3980  156.8972 O.2     1  UNL1       -0.2449
@<TRIPOS>BOND
     1    11    12    1
     2    12    13   ar
     3    13    14   ar
     4    14    18    1
     5    18    19   ar
     6    19    20   ar
     7    20    21   ar
     8    21    22   ar
     9    14    15   ar
    10    15    16   ar
    11    16    17   ar
    12    17     9    1
    13     9    10    1
    14     9     1    1
    15     1     2    2
    16     1     3   am
    17     3     4    1
    18     4     5    1
    19     5     6    1
    20     6    23    1
    21    23    24    1
    22    24    25    1
    23    25    26   ar
    24    26    27   ar
    25    27    28   ar
    26    28    29   ar
    27    29    30   ar
    28    30    31    1
    29    29    32    1
    30    32    33    1
    31    33    34    1
    32    34    35    2
    33     6     7    1
    34     7     8    1
    35    17    12   ar
    36     8     3    1
    37    22    18   ar
    38    30    25   ar
    39    34    28    1
@<TRIPOS>MOLECULE
*****
 35 39 0 0 0
SMALL
GASTEIGER

@<TRIPOS>ATOM
      1 C         142.6483  138.5417  163.0563 C.2     1  UNL1        0.2294
      2 O         144.1268  138.7803  163.1412 O.2     1  UNL1       -0.2745
      3 N         141.9605  138.5635  161.7235 N.am    1  UNL1       -0.2764
      4 C         142.7511  138.8239  160.4755 C.3     1  UNL1        0.1107
      5 C         142.0632  138.8457  159.1428 C.3     1  UNL1        0.0939
      6 N         140.5847  138.6071  159.0578 N.3     1  UNL1       -0.2695
      7 C         139.7941  138.3467  160.3057 C.3     1  UNL1        0.0939
      8 C         140.4821  138.3250  161.6385 C.3     1  UNL1        0.1107
      9 C         141.8577  138.2813  164.3041 C.3     1  UNL1        0.1001
     10 C         141.0869  137.0029  164.4504 C.3     1  UNL1        0.0144
     11 C         143.7769  138.0469  166.5979 C.3     1  UNL1        0.0309
     12 C         142.7976  139.1822  166.5525 C.ar    1  UNL1       -0.0208
     13 C         142.7778  140.2002  167.6539 C.ar    1  UNL1        0.0344
     14 C         141.7984  141.3355  167.6085 C.ar    1  UNL1        0.1669
     15 N         140.8388  141.4526  166.4615 N.ar    1  UNL1       -0.2253
     16 C         140.8586  140.4346  165.3601 C.ar    1  UNL1        0.0964
     17 C         141.8379  139.2994  165.4056 C.ar    1  UNL1        0.0015
     18 N         141.7786  142.3535  168.7099 N.ar    1  UNL1       -0.1708
     19 C         140.5842  143.1401  169.1620 C.ar    1  UNL1        0.2272
     20 N         141.0172  144.0365  170.2842 N.ar    1  UNL1       -0.1044
     21 N         142.4792  143.8038  170.5256 N.ar    1  UNL1       -0.0222
     22 N         142.9498  142.7636  169.5526 N.ar    1  UNL1       -0.0371
     23 C         139.8969  138.6289  157.7250 C.3     1  UNL1        0.0769
     24 C         139.3323  139.9129  157.1933 C.3     1  UNL1        0.0433
     25 C         139.5253  141.1899  157.9563 C.ar    1  UNL1       -0.0249
     26 C         138.5148  141.6111  158.9815 C.ar    1  UNL1       -0.0043
     27 C         138.7078  142.8881  159.7445 C.ar    1  UNL1        0.0059
     28 C         139.9114  143.7439  159.4821 C.ar    1  UNL1        0.0748
     29 C         140.9220  143.3227  158.4568 C.ar    1  UNL1        0.0233
     30 C         140.7290  142.0458  157.6938 C.ar    1  UNL1       -0.0260
     31 C         141.7396  141.6245  156.6685 C.3     1  UNL1        0.0305
     32 C         142.0012  144.3637  158.4147 C.3     1  UNL1        0.2352
     33 O         141.6575  145.4282  159.4141 O.3     1  UNL1       -0.4404
     34 C         140.3660  145.0451  160.0737 C.2     1  UNL1        0.3413
     35 O         139.6540  145.8262  161.1382 O.2     1  UNL1       -0.2449
@<TRIPOS>BOND
     1    11    12    1
     2    12    13   ar
     3    13    14   ar
     4    14    18    1
     5    18    19   ar
     6    19    20   ar
     7    20    21   ar
     8    21    22   ar
     9    14    15   ar
    10    15    16   ar
    11    16    17   ar
    12    17     9    1
    13     9    10    1
    14     9     1    1
    15     1     2    2
    16     1     3   am
    17     3     4    1
    18     4     5    1
    19     5     6    1
    20     6    23    1
    21    23    24    1
    22    24    25    1
    23    25    26   ar
    24    26    27   ar
    25    27    28   ar
    26    28    29   ar
    27    29    30   ar
    28    30    31    1
    29    29    32    1
    30    32    33    1
    31    33    34    1
    32    34    35    2
    33     6     7    1
    34     7     8    1
    35    17    12   ar
    36     8     3    1
    37    22    18   ar
    38    30    25   ar
    39    34    28    1
