@<TRIPOS>MOLECULE
*****
 28 32 0 0 0
SMALL
GASTEIGER

@<TRIPOS>ATOM
      1 C         139.9742  139.0626  162.1107 C.ar    1  UNL1        0.0213
      2 C         139.3540  138.3403  160.9516 C.ar    1  UNL1        0.1006
      3 N         139.9898  138.4142  159.5950 N.ar    1  UNL1       -0.2246
      4 C         141.2456  139.2103  159.3976 C.ar    1  UNL1        0.1702
      5 N         142.0927  139.4648  158.1860 N.ar    1  UNL1       -0.2052
      6 C         143.2363  140.3443  158.5964 C.ar    1  UNL1        0.1647
      7 S         143.0961  140.6334  160.0616 S.2     1  UNL1       -0.0499
      8 C         141.8658  139.9326  160.5567 C.ar    1  UNL1        0.0679
      9 C         141.2301  139.8587  161.9133 C.ar    1  UNL1        0.0112
     10 F         137.4313  138.7674  167.5373 F       1  UNL1       -0.1832
     11 C         138.0670  138.8412  166.1807 C.ar    1  UNL1        0.2223
     12 C         138.6197  137.6011  165.5429 C.ar    1  UNL1        0.0497
     13 C         139.2555  137.6749  164.1863 C.ar    1  UNL1        0.0055
     14 C         139.3385  138.9888  163.4674 C.ar    1  UNL1        0.0209
     15 C         138.7857  140.2289  164.1051 C.ar    1  UNL1        0.1013
     16 N         138.1500  140.1551  165.4617 N.ar    1  UNL1       -0.2165
     17 N         144.3285  140.8467  157.6992 N.pl3   1  UNL1       -0.2880
     18 C         144.6282  140.1363  156.4125 C.3     1  UNL1        0.0940
     19 C         145.7203  140.6385  155.5153 C.3     1  UNL1        0.0375
     20 C         146.5127  141.8511  155.9048 C.3     1  UNL1        0.0609
     21 C         146.2129  142.5615  157.1915 C.3     1  UNL1        0.0375
     22 C         145.1208  142.0593  158.0887 C.3     1  UNL1        0.0940
     23 N         147.6048  142.3534  155.0076 N.3     1  UNL1       -0.2738
     24 C         147.3502  143.5161  154.0947 C.3     1  UNL1        0.0720
     25 C         148.4423  144.0184  153.1975 C.3     1  UNL1        0.0174
     26 C         149.7890  143.3581  153.2132 C.3     1  UNL1        0.0029
     27 C         150.0436  142.1954  154.1261 C.3     1  UNL1        0.0174
     28 C         148.9515  141.6931  155.0233 C.3     1  UNL1        0.0720
@<TRIPOS>BOND
     1    10    11    1
     2    11    12   ar
     3    12    13   ar
     4    13    14   ar
     5    14     1    1
     6     1     2   ar
     7     2     3   ar
     8     3     4   ar
     9     4     5   ar
    10     5     6   ar
    11     6    17    1
    12    17    18    1
    13    18    19    1
    14    19    20    1
    15    20    23    1
    16    23    24    1
    17    24    25    1
    18    25    26    1
    19    26    27    1
    20    27    28    1
    21    20    21    1
    22    21    22    1
    23     6     7   ar
    24     7     8   ar
    25     8     9   ar
    26    14    15   ar
    27    15    16   ar
    28    16    11   ar
    29     9     1   ar
    30     8     4   ar
    31    22    17    1
    32    28    23    1
@<TRIPOS>MOLECULE
*****
 28 32 0 0 0
SMALL
GASTEIGER

@<TRIPOS>ATOM
      1 C         139.4993  141.2998  165.9250 C.ar    1  UNL1        0.0213
      2 C         138.4808  140.3893  165.3057 C.ar    1  UNL1        0.1006
      3 N         138.1377  140.5265  163.8520 N.ar    1  UNL1       -0.2246
      4 C         138.8132  141.5740  163.0175 C.ar    1  UNL1        0.1702
      5 N         138.6809  141.9431  161.5696 N.ar    1  UNL1       -0.2052
      6 C         139.6178  143.0817  161.2941 C.ar    1  UNL1        0.1647
      7 S         140.3290  143.4163  162.5717 S.2     1  UNL1       -0.0499
      8 C         139.8318  142.4844  163.6368 C.ar    1  UNL1        0.0679
      9 C         140.1748  142.3473  165.0906 C.ar    1  UNL1        0.0112
     10 F         140.8717  140.7513  171.7402 F       1  UNL1       -0.1832
     11 C         140.5287  140.8884  170.2865 C.ar    1  UNL1        0.2223
     12 C         140.9203  142.1274  169.5370 C.ar    1  UNL1        0.0497
     13 C         140.5772  142.2645  168.0832 C.ar    1  UNL1        0.0055
     14 C         139.8425  141.1627  167.3789 C.ar    1  UNL1        0.0209
     15 C         139.4508  139.9237  168.1283 C.ar    1  UNL1        0.1013
     16 N         139.7939  139.7866  169.5820 N.ar    1  UNL1       -0.2165
     17 N         139.8097  143.7657  159.9730 N.pl3   1  UNL1       -0.2880
     18 C         139.3670  143.0918  158.7082 C.3     1  UNL1        0.0940
     19 C         139.5589  143.7757  157.3871 C.3     1  UNL1        0.0375
     20 C         140.1936  145.1336  157.3308 C.3     1  UNL1        0.0609
     21 C         140.6364  145.8076  158.5956 C.3     1  UNL1        0.0375
     22 C         140.4444  145.1236  159.9167 C.3     1  UNL1        0.0940
     23 N         140.3855  145.8176  156.0096 N.3     1  UNL1       -0.2738
     24 C         139.6591  147.0964  155.7146 C.3     1  UNL1        0.0720
     25 C         139.8510  147.7804  154.3936 C.3     1  UNL1        0.0174
     26 C         140.7693  147.1856  153.3675 C.3     1  UNL1        0.0029
     27 C         141.4958  145.9069  153.6625 C.3     1  UNL1        0.0174
     28 C         141.3039  145.2229  154.9836 C.3     1  UNL1        0.0720
@<TRIPOS>BOND
     1    10    11    1
     2    11    12   ar
     3    12    13   ar
     4    13    14   ar
     5    14     1    1
     6     1     2   ar
     7     2     3   ar
     8     3     4   ar
     9     4     5   ar
    10     5     6   ar
    11     6    17    1
    12    17    18    1
    13    18    19    1
    14    19    20    1
    15    20    23    1
    16    23    24    1
    17    24    25    1
    18    25    26    1
    19    26    27    1
    20    27    28    1
    21    20    21    1
    22    21    22    1
    23     6     7   ar
    24     7     8   ar
    25     8     9   ar
    26    14    15   ar
    27    15    16   ar
    28    16    11   ar
    29     9     1   ar
    30     8     4   ar
    31    22    17    1
    32    28    23    1
@<TRIPOS>MOLECULE
*****
 28 32 0 0 0
SMALL
GASTEIGER

@<TRIPOS>ATOM
      1 C         143.6063  141.5357  159.5610 C.ar    1  UNL1        0.0213
      2 C         144.2092  141.8778  158.2308 C.ar    1  UNL1        0.1006
      3 N         144.2450  140.8515  157.1375 N.ar    1  UNL1       -0.2246
      4 C         143.6780  139.4832  157.3744 C.ar    1  UNL1        0.1702
      5 N         143.5726  138.2740  156.4929 N.ar    1  UNL1       -0.2052
      6 C         142.9046  137.1846  157.2785 C.ar    1  UNL1        0.1647
      7 S         142.5971  137.7206  158.6453 S.2     1  UNL1       -0.0499
      8 C         143.0751  139.1411  158.7046 C.ar    1  UNL1        0.0679
      9 C         143.0393  140.1674  159.7979 C.ar    1  UNL1        0.0112
     10 F         143.4629  145.6409  163.9345 F       1  UNL1       -0.1832
     11 C         143.4988  144.6146  162.8412 C.ar    1  UNL1        0.2223
     12 C         144.5540  143.5486  162.8475 C.ar    1  UNL1        0.0497
     13 C         144.5899  142.5223  161.7541 C.ar    1  UNL1        0.0055
     14 C         143.5705  142.5621  160.6544 C.ar    1  UNL1        0.0209
     15 C         142.5152  143.6281  160.6481 C.ar    1  UNL1        0.1013
     16 N         142.4794  144.6543  161.7415 N.ar    1  UNL1       -0.2165
     17 N         142.5978  135.8020  156.7840 N.pl3   1  UNL1       -0.2880
     18 C         141.5606  135.5992  155.7195 C.3     1  UNL1        0.0940
     19 C         141.2539  134.2167  155.2250 C.3     1  UNL1        0.0375
     20 C         141.9844  133.0371  155.7950 C.3     1  UNL1        0.0609
     21 C         143.0215  133.2399  156.8595 C.3     1  UNL1        0.0375
     22 C         143.3283  134.6224  157.3539 C.3     1  UNL1        0.0940
     23 N         141.6776  131.6545  155.3005 N.3     1  UNL1       -0.2738
     24 C         140.5984  131.4452  154.2799 C.3     1  UNL1        0.0720
     25 C         140.2917  130.0627  153.7855 C.3     1  UNL1        0.0174
     26 C         141.0641  128.8895  154.3116 C.3     1  UNL1        0.0029
     27 C         142.1433  129.0987  155.3321 C.3     1  UNL1        0.0174
     28 C         142.4500  130.4812  155.8266 C.3     1  UNL1        0.0720
@<TRIPOS>BOND
     1    10    11    1
     2    11    12   ar
     3    12    13   ar
     4    13    14   ar
     5    14     1    1
     6     1     2   ar
     7     2     3   ar
     8     3     4   ar
     9     4     5   ar
    10     5     6   ar
    11     6    17    1
    12    17    18    1
    13    18    19    1
    14    19    20    1
    15    20    23    1
    16    23    24    1
    17    24    25    1
    18    25    26    1
    19    26    27    1
    20    27    28    1
    21    20    21    1
    22    21    22    1
    23     6     7   ar
    24     7     8   ar
    25     8     9   ar
    26    14    15   ar
    27    15    16   ar
    28    16    11   ar
    29     9     1   ar
    30     8     4   ar
    31    22    17    1
    32    28    23    1
@<TRIPOS>MOLECULE
*****
 28 32 0 0 0
SMALL
GASTEIGER

@<TRIPOS>ATOM
      1 C         139.9928  145.3115  157.3580 C.ar    1  UNL1        0.0213
      2 C         139.6227  143.8772  157.1223 C.ar    1  UNL1        0.1006
      3 N         139.6568  142.8976  158.2578 N.ar    1  UNL1       -0.2246
      4 C         140.0611  143.3523  159.6288 C.ar    1  UNL1        0.1702
      5 N         140.1874  142.6208  160.9323 N.ar    1  UNL1       -0.2052
      6 C         140.6356  143.6032  161.9735 C.ar    1  UNL1        0.1647
      7 S         140.7863  144.9417  161.3135 S.2     1  UNL1       -0.0499
      8 C         140.4312  144.7867  159.8644 C.ar    1  UNL1        0.0679
      9 C         140.3970  145.7663  158.7290 C.ar    1  UNL1        0.0112
     10 F         139.8563  149.2301  152.8163 F       1  UNL1       -0.1832
     11 C         139.8904  148.2505  153.9517 C.ar    1  UNL1        0.2223
     12 C         139.0399  148.4797  155.1658 C.ar    1  UNL1        0.0497
     13 C         139.0740  147.5000  156.3013 C.ar    1  UNL1        0.0055
     14 C         139.9586  146.2912  156.2225 C.ar    1  UNL1        0.0209
     15 C         140.8091  146.0620  155.0084 C.ar    1  UNL1        0.1013
     16 N         140.7750  147.0416  153.8730 N.ar    1  UNL1       -0.2165
     17 N         140.8888  143.3001  163.4206 N.pl3   1  UNL1       -0.2880
     18 C         142.2500  142.8550  163.8667 C.3     1  UNL1        0.0940
     19 C         142.5031  142.5520  165.3138 C.3     1  UNL1        0.0375
     20 C         141.3951  142.6942  166.3148 C.3     1  UNL1        0.0609
     21 C         140.0339  143.1393  165.8687 C.3     1  UNL1        0.0375
     22 C         139.7807  143.4423  164.4216 C.3     1  UNL1        0.0940
     23 N         141.6482  142.3912  167.7619 N.3     1  UNL1       -0.2738
     24 C         140.4981  142.2920  168.7197 C.3     1  UNL1        0.0720
     25 C         140.7512  141.9890  170.1668 C.3     1  UNL1        0.0174
     26 C         142.1544  141.7852  170.6561 C.3     1  UNL1        0.0029
     27 C         143.3045  141.8843  169.6983 C.3     1  UNL1        0.0174
     28 C         143.0514  142.1873  168.2512 C.3     1  UNL1        0.0720
@<TRIPOS>BOND
     1    10    11    1
     2    11    12   ar
     3    12    13   ar
     4    13    14   ar
     5    14     1    1
     6     1     2   ar
     7     2     3   ar
     8     3     4   ar
     9     4     5   ar
    10     5     6   ar
    11     6    17    1
    12    17    18    1
    13    18    19    1
    14    19    20    1
    15    20    23    1
    16    23    24    1
    17    24    25    1
    18    25    26    1
    19    26    27    1
    20    27    28    1
    21    20    21    1
    22    21    22    1
    23     6     7   ar
    24     7     8   ar
    25     8     9   ar
    26    14    15   ar
    27    15    16   ar
    28    16    11   ar
    29     9     1   ar
    30     8     4   ar
    31    22    17    1
    32    28    23    1
@<TRIPOS>MOLECULE
*****
 28 32 0 0 0
SMALL
GASTEIGER

@<TRIPOS>ATOM
      1 C         141.1605  140.2543  166.7464 C.ar    1  UNL1        0.0213
      2 C         142.2720  139.2596  166.9041 C.ar    1  UNL1        0.1006
      3 N         142.7691  138.4953  165.7131 N.ar    1  UNL1       -0.2246
      4 C         142.1547  138.7258  164.3642 C.ar    1  UNL1        0.1702
      5 N         142.4338  138.1252  163.0183 N.ar    1  UNL1       -0.2052
      6 C         141.4948  138.7489  162.0287 C.ar    1  UNL1        0.1647
      7 S         140.6353  139.7349  162.7631 S.2     1  UNL1       -0.0499
      8 C         141.0432  139.7206  164.2065 C.ar    1  UNL1        0.0679
      9 C         140.5461  140.4849  165.3975 C.ar    1  UNL1        0.0112
     10 F         139.1718  143.3115  171.5108 F       1  UNL1       -0.1832
     11 C         139.6690  142.5473  170.3197 C.ar    1  UNL1        0.2223
     12 C         140.4005  143.2616  169.2221 C.ar    1  UNL1        0.0497
     13 C         140.8976  142.4973  168.0310 C.ar    1  UNL1        0.0055
     14 C         140.6633  141.0187  167.9375 C.ar    1  UNL1        0.0209
     15 C         139.9318  140.3043  169.0351 C.ar    1  UNL1        0.1013
     16 N         139.4347  141.0686  170.2261 N.ar    1  UNL1       -0.2165
     17 N         141.4270  138.4407  160.5622 N.pl3   1  UNL1       -0.2880
     18 C         140.1473  138.6540  159.8094 C.3     1  UNL1        0.0940
     19 C         140.0795  138.3459  158.3429 C.3     1  UNL1        0.0375
     20 C         141.2915  137.8244  157.6294 C.3     1  UNL1        0.0609
     21 C         142.5712  137.6111  158.3822 C.3     1  UNL1        0.0375
     22 C         142.6390  137.9193  159.8487 C.3     1  UNL1        0.0940
     23 N         141.2237  137.5163  156.1629 N.3     1  UNL1       -0.2738
     24 C         139.9335  137.0555  155.5522 C.3     1  UNL1        0.0720
     25 C         139.8657  136.7473  154.0858 C.3     1  UNL1        0.0174
     26 C         141.0882  136.8999  153.2301 C.3     1  UNL1        0.0029
     27 C         142.3784  137.3607  153.8408 C.3     1  UNL1        0.0174
     28 C         142.4462  137.6688  155.3072 C.3     1  UNL1        0.0720
@<TRIPOS>BOND
     1    10    11    1
     2    11    12   ar
     3    12    13   ar
     4    13    14   ar
     5    14     1    1
     6     1     2   ar
     7     2     3   ar
     8     3     4   ar
     9     4     5   ar
    10     5     6   ar
    11     6    17    1
    12    17    18    1
    13    18    19    1
    14    19    20    1
    15    20    23    1
    16    23    24    1
    17    24    25    1
    18    25    26    1
    19    26    27    1
    20    27    28    1
    21    20    21    1
    22    21    22    1
    23     6     7   ar
    24     7     8   ar
    25     8     9   ar
    26    14    15   ar
    27    15    16   ar
    28    16    11   ar
    29     9     1   ar
    30     8     4   ar
    31    22    17    1
    32    28    23    1
@<TRIPOS>MOLECULE
*****
 28 32 0 0 0
SMALL
GASTEIGER

@<TRIPOS>ATOM
      1 C         138.8309  140.7594  163.6784 C.ar    1  UNL1        0.0213
      2 C         138.0954  139.7891  162.8023 C.ar    1  UNL1        0.1006
      3 N         137.9493  140.0651  161.3352 N.ar    1  UNL1       -0.2246
      4 C         138.5386  141.3115  160.7443 C.ar    1  UNL1        0.1702
      5 N         138.5547  141.8476  159.3434 N.ar    1  UNL1       -0.2052
      6 C         139.3001  143.1492  159.3537 C.ar    1  UNL1        0.1647
      7 S         139.7447  143.4176  160.7610 S.2     1  UNL1       -0.0499
      8 C         139.2741  142.2818  161.6204 C.ar    1  UNL1        0.0679
      9 C         139.4202  142.0057  163.0875 C.ar    1  UNL1        0.0112
     10 F         139.4155  139.6553  169.5470 F       1  UNL1       -0.1832
     11 C         139.2693  139.9313  168.0799 C.ar    1  UNL1        0.2223
     12 C         138.2718  139.1601  167.2674 C.ar    1  UNL1        0.0497
     13 C         138.1256  139.4361  165.8002 C.ar    1  UNL1        0.0055
     14 C         138.9770  140.4833  165.1456 C.ar    1  UNL1        0.0209
     15 C         139.9745  141.2545  165.9581 C.ar    1  UNL1        0.1013
     16 N         140.1207  140.9785  167.4252 N.ar    1  UNL1       -0.2165
     17 N         139.5560  144.0282  158.1655 N.pl3   1  UNL1       -0.2880
     18 C         140.3082  145.3152  158.3327 C.3     1  UNL1        0.0940
     19 C         140.5641  146.1942  157.1446 C.3     1  UNL1        0.0375
     20 C         140.0679  145.7863  155.7891 C.3     1  UNL1        0.0609
     21 C         139.3157  144.4993  155.6219 C.3     1  UNL1        0.0375
     22 C         139.0598  143.6203  156.8100 C.3     1  UNL1        0.0940
     23 N         140.3238  146.6653  154.6009 N.3     1  UNL1       -0.2738
     24 C         139.7310  148.0420  154.5449 C.3     1  UNL1        0.0720
     25 C         139.9868  148.9211  153.3567 C.3     1  UNL1        0.0174
     26 C         140.8355  148.4233  152.2245 C.3     1  UNL1        0.0029
     27 C         141.4283  147.0466  152.2805 C.3     1  UNL1        0.0174
     28 C         141.1724  146.1676  153.4687 C.3     1  UNL1        0.0720
@<TRIPOS>BOND
     1    10    11    1
     2    11    12   ar
     3    12    13   ar
     4    13    14   ar
     5    14     1    1
     6     1     2   ar
     7     2     3   ar
     8     3     4   ar
     9     4     5   ar
    10     5     6   ar
    11     6    17    1
    12    17    18    1
    13    18    19    1
    14    19    20    1
    15    20    23    1
    16    23    24    1
    17    24    25    1
    18    25    26    1
    19    26    27    1
    20    27    28    1
    21    20    21    1
    22    21    22    1
    23     6     7   ar
    24     7     8   ar
    25     8     9   ar
    26    14    15   ar
    27    15    16   ar
    28    16    11   ar
    29     9     1   ar
    30     8     4   ar
    31    22    17    1
    32    28    23    1
@<TRIPOS>MOLECULE
*****
 28 32 0 0 0
SMALL
GASTEIGER

@<TRIPOS>ATOM
      1 C         142.0412  142.0447  166.5446 C.ar    1  UNL1        0.0213
      2 C         143.4689  142.5019  166.4920 C.ar    1  UNL1        0.1006
      3 N         144.0093  143.1309  165.2421 N.ar    1  UNL1       -0.2246
      4 C         143.1222  143.3027  164.0448 C.ar    1  UNL1        0.1702
      5 N         143.3730  143.8837  162.6848 N.ar    1  UNL1       -0.2052
      6 C         142.1004  143.7856  161.8970 C.ar    1  UNL1        0.1647
      7 S         141.0630  143.1439  162.7700 S.2     1  UNL1       -0.0499
      8 C         141.6945  142.8455  164.0975 C.ar    1  UNL1        0.0679
      9 C         141.1541  142.2165  165.3473 C.ar    1  UNL1        0.0112
     10 F         139.8792  139.5287  171.5442 F       1  UNL1       -0.1832
     11 C         140.4197  140.1577  170.2943 C.ar    1  UNL1        0.2223
     12 C         139.7849  141.4010  169.7454 C.ar    1  UNL1        0.0497
     13 C         140.3254  142.0300  168.4955 C.ar    1  UNL1        0.0055
     14 C         141.5007  141.4157  167.7945 C.ar    1  UNL1        0.0209
     15 C         142.1355  140.1724  168.3434 C.ar    1  UNL1        0.1013
     16 N         141.5950  139.5434  169.5933 N.ar    1  UNL1       -0.2165
     17 N         141.9002  144.2479  160.4840 N.pl3   1  UNL1       -0.2880
     18 C         140.8438  145.2656  160.1705 C.3     1  UNL1        0.0940
     19 C         140.6436  145.7279  158.7577 C.3     1  UNL1        0.0375
     20 C         141.4998  145.1726  157.6584 C.3     1  UNL1        0.0609
     21 C         142.5562  144.1549  157.9720 C.3     1  UNL1        0.0375
     22 C         142.7564  143.6926  159.3848 C.3     1  UNL1        0.0940
     23 N         141.2996  145.6349  156.2455 N.3     1  UNL1       -0.2738
     24 C         140.2285  146.6362  155.9286 C.3     1  UNL1        0.0720
     25 C         140.0283  147.0985  154.5158 C.3     1  UNL1        0.0174
     26 C         140.8992  146.5596  153.4199 C.3     1  UNL1        0.0029
     27 C         141.9702  145.5584  153.7367 C.3     1  UNL1        0.0174
     28 C         142.1704  145.0961  155.1495 C.3     1  UNL1        0.0720
@<TRIPOS>BOND
     1    10    11    1
     2    11    12   ar
     3    12    13   ar
     4    13    14   ar
     5    14     1    1
     6     1     2   ar
     7     2     3   ar
     8     3     4   ar
     9     4     5   ar
    10     5     6   ar
    11     6    17    1
    12    17    18    1
    13    18    19    1
    14    19    20    1
    15    20    23    1
    16    23    24    1
    17    24    25    1
    18    25    26    1
    19    26    27    1
    20    27    28    1
    21    20    21    1
    22    21    22    1
    23     6     7   ar
    24     7     8   ar
    25     8     9   ar
    26    14    15   ar
    27    15    16   ar
    28    16    11   ar
    29     9     1   ar
    30     8     4   ar
    31    22    17    1
    32    28    23    1
@<TRIPOS>MOLECULE
*****
 28 32 0 0 0
SMALL
GASTEIGER

@<TRIPOS>ATOM
      1 C         141.6798  142.0947  164.9089 C.ar    1  UNL1        0.0213
      2 C         141.4511  143.2908  164.0332 C.ar    1  UNL1        0.1006
      3 N         141.3003  143.1173  162.5510 N.ar    1  UNL1       -0.2246
      4 C         141.3783  141.7476  161.9444 C.ar    1  UNL1        0.1702
      5 N         141.2676  141.2699  160.5268 N.ar    1  UNL1       -0.2052
      6 C         141.4280  139.7785  160.5264 C.ar    1  UNL1        0.1647
      7 S         141.6378  139.3345  161.9437 S.2     1  UNL1       -0.0499
      8 C         141.6071  140.5515  162.8201 C.ar    1  UNL1        0.0679
      9 C         141.7578  140.7250  164.3023 C.ar    1  UNL1        0.0112
     10 F         142.2831  142.7887  170.8381 F       1  UNL1       -0.1832
     11 C         142.1322  142.6152  169.3558 C.ar    1  UNL1        0.2223
     12 C         140.7645  142.5266  168.7464 C.ar    1  UNL1        0.0497
     13 C         140.6137  142.3531  167.2640 C.ar    1  UNL1        0.0055
     14 C         141.8306  142.2682  166.3912 C.ar    1  UNL1        0.0209
     15 C         143.1984  142.3568  167.0007 C.ar    1  UNL1        0.1013
     16 N         143.3492  142.5303  168.4829 N.ar    1  UNL1       -0.2165
     17 N         141.3860  138.8875  159.3204 N.pl3   1  UNL1       -0.2880
     18 C         142.6407  138.2257  158.8328 C.3     1  UNL1        0.0940
     19 C         142.5987  137.3347  157.6268 C.3     1  UNL1        0.0375
     20 C         141.3021  137.1055  156.9085 C.3     1  UNL1        0.0609
     21 C         140.0474  137.7673  157.3961 C.3     1  UNL1        0.0375
     22 C         140.0893  138.6583  158.6020 C.3     1  UNL1        0.0940
     23 N         141.2601  136.2145  155.7025 N.3     1  UNL1       -0.2738
     24 C         140.6161  136.6961  154.4362 C.3     1  UNL1        0.0720
     25 C         140.5741  135.8052  153.2303 C.3     1  UNL1        0.0174
     26 C         141.1760  134.4326  153.2905 C.3     1  UNL1        0.0029
     27 C         141.8199  133.9510  154.5568 C.3     1  UNL1        0.0174
     28 C         141.8620  134.8419  155.7627 C.3     1  UNL1        0.0720
@<TRIPOS>BOND
     1    10    11    1
     2    11    12   ar
     3    12    13   ar
     4    13    14   ar
     5    14     1    1
     6     1     2   ar
     7     2     3   ar
     8     3     4   ar
     9     4     5   ar
    10     5     6   ar
    11     6    17    1
    12    17    18    1
    13    18    19    1
    14    19    20    1
    15    20    23    1
    16    23    24    1
    17    24    25    1
    18    25    26    1
    19    26    27    1
    20    27    28    1
    21    20    21    1
    22    21    22    1
    23     6     7   ar
    24     7     8   ar
    25     8     9   ar
    26    14    15   ar
    27    15    16   ar
    28    16    11   ar
    29     9     1   ar
    30     8     4   ar
    31    22    17    1
    32    28    23    1
@<TRIPOS>MOLECULE
*****
 28 32 0 0 0
SMALL
GASTEIGER

@<TRIPOS>ATOM
      1 C         141.0642  139.7976  165.8919 C.ar    1  UNL1        0.0213
      2 C         140.1745  138.8615  165.1288 C.ar    1  UNL1        0.1006
      3 N         140.3267  138.7266  163.6427 N.ar    1  UNL1       -0.2246
      4 C         141.3685  139.5277  162.9197 C.ar    1  UNL1        0.1702
      5 N         141.7492  139.6042  161.4707 N.ar    1  UNL1       -0.2052
      6 C         142.8741  140.5876  161.3384 C.ar    1  UNL1        0.1647
      7 S         143.1887  141.1188  162.7055 S.2     1  UNL1       -0.0499
      8 C         142.2582  140.4637  163.6827 C.ar    1  UNL1        0.0679
      9 C         142.1060  140.5987  165.1688 C.ar    1  UNL1        0.0112
     10 F         140.4557  140.3374  171.8365 F       1  UNL1       -0.1832
     11 C         140.6078  140.2024  170.3504 C.ar    1  UNL1        0.2223
     12 C         139.4180  140.3841  169.4552 C.ar    1  UNL1        0.0497
     13 C         139.5702  140.2491  167.9690 C.ar    1  UNL1        0.0055
     14 C         140.9120  139.9325  167.3781 C.ar    1  UNL1        0.0209
     15 C         142.1018  139.7509  168.2734 C.ar    1  UNL1        0.1013
     16 N         141.9497  139.8858  169.7595 N.ar    1  UNL1       -0.2165
     17 N         143.5635  140.9722  160.0629 N.pl3   1  UNL1       -0.2880
     18 C         144.3045  142.2733  159.9737 C.3     1  UNL1        0.0940
     19 C         144.9939  142.6580  158.6983 C.3     1  UNL1        0.0375
     20 C         144.9422  141.7416  157.5120 C.3     1  UNL1        0.0609
     21 C         144.2012  140.4404  157.6011 C.3     1  UNL1        0.0375
     22 C         143.5119  140.0557  158.8765 C.3     1  UNL1        0.0940
     23 N         145.6316  142.1262  156.2365 N.3     1  UNL1       -0.2738
     24 C         147.1275  142.2288  156.1939 C.3     1  UNL1        0.0720
     25 C         147.8169  142.6134  154.9185 C.3     1  UNL1        0.0174
     26 C         147.0104  142.8955  153.6857 C.3     1  UNL1        0.0029
     27 C         145.5145  142.7929  153.7282 C.3     1  UNL1        0.0174
     28 C         144.8251  142.4083  155.0036 C.3     1  UNL1        0.0720
@<TRIPOS>BOND
     1    10    11    1
     2    11    12   ar
     3    12    13   ar
     4    13    14   ar
     5    14     1    1
     6     1     2   ar
     7     2     3   ar
     8     3     4   ar
     9     4     5   ar
    10     5     6   ar
    11     6    17    1
    12    17    18    1
    13    18    19    1
    14    19    20    1
    15    20    23    1
    16    23    24    1
    17    24    25    1
    18    25    26    1
    19    26    27    1
    20    27    28    1
    21    20    21    1
    22    21    22    1
    23     6     7   ar
    24     7     8   ar
    25     8     9   ar
    26    14    15   ar
    27    15    16   ar
    28    16    11   ar
    29     9     1   ar
    30     8     4   ar
    31    22    17    1
    32    28    23    1
