@<TRIPOS>MOLECULE
*****
 23 25 0 0 0
SMALL
GASTEIGER

@<TRIPOS>ATOM
      1 C         139.7569  140.1107  166.8530 C.ar    1  UNL1        0.1484
      2 C         138.9676  139.7575  168.0786 C.ar    1  UNL1        0.0797
      3 C         139.4986  140.1034  169.4381 C.ar    1  UNL1        0.2046
      4 O         138.7092  139.7502  170.6638 O.2     1  UNL1       -0.2863
      5 C         140.8189  140.8025  169.5721 C.ar    1  UNL1        0.1073
      6 C         141.3499  141.1484  170.9317 C.ar    1  UNL1        0.1427
      7 O         140.5606  140.7952  172.1573 O.3     1  UNL1       -0.5052
      8 C         142.6702  141.8476  171.0656 C.ar    1  UNL1        0.0735
      9 C         143.4596  142.2008  169.8399 C.ar    1  UNL1        0.1397
     10 O         144.7799  142.8999  169.9738 O.3     1  UNL1       -0.5053
     11 C         142.9286  141.8549  168.4804 C.ar    1  UNL1        0.0744
     12 C         141.6082  141.1557  168.3465 C.ar    1  UNL1        0.1543
     13 O         141.0772  140.8098  166.9869 O.2     1  UNL1       -0.4531
     14 H         139.7358  140.3585  172.0736 H       1  UNL1        0.2922
     15 H         145.1116  143.1160  170.8231 H       1  UNL1        0.2922
     16 C         138.1640  139.0729  162.7743 C.ar    1  UNL1        0.1387
     17 C         137.9496  140.4473  163.3358 C.ar    1  UNL1        0.0370
     18 C         138.4806  140.7932  164.6954 C.ar    1  UNL1        0.0061
     19 C         139.2259  139.7648  165.4934 C.ar    1  UNL1        0.0349
     20 C         139.4403  138.3905  164.9319 C.ar    1  UNL1        0.0061
     21 C         138.9093  138.0445  163.5724 C.ar    1  UNL1        0.0370
     22 C         137.4504  139.8023  160.3850 C.3     1  UNL1        0.2525
     23 O         137.6331  138.7270  161.4147 O.3     1  UNL1       -0.4714
@<TRIPOS>BOND
     1    22    23    1
     2    23    16    1
     3    16    17   ar
     4    17    18   ar
     5    18    19   ar
     6    19     1    1
     7     1     2   ar
     8     2     3   ar
     9     3     4    2
    10     3     5   ar
    11     5     6   ar
    12     6     7    1
    13     6     8   ar
    14     8     9   ar
    15     9    10    1
    16     9    11   ar
    17    11    12   ar
    18    12    13   ar
    19    19    20   ar
    20    20    21   ar
    21    21    16   ar
    22    13     1   ar
    23    12     5   ar
    24     7    14    1
    25    10    15    1
@<TRIPOS>MOLECULE
*****
 23 25 0 0 0
SMALL
GASTEIGER

@<TRIPOS>ATOM
      1 C         141.9072  139.9140  166.2275 C.ar    1  UNL1        0.1484
      2 C         140.5646  139.4945  166.7484 C.ar    1  UNL1        0.0797
      3 C         140.0606  140.0429  168.0503 C.ar    1  UNL1        0.2046
      4 O         138.7179  139.6233  168.5713 O.2     1  UNL1       -0.2863
      5 C         140.8991  141.0108  168.8314 C.ar    1  UNL1        0.1073
      6 C         140.3949  141.5592  170.1334 C.ar    1  UNL1        0.1427
      7 O         139.0524  141.1397  170.6543 O.3     1  UNL1       -0.5052
      8 C         141.2335  142.5271  170.9144 C.ar    1  UNL1        0.0735
      9 C         142.5761  142.9467  170.3934 C.ar    1  UNL1        0.1397
     10 O         143.4146  143.9146  171.1744 O.3     1  UNL1       -0.5053
     11 C         143.0802  142.3983  169.0915 C.ar    1  UNL1        0.0744
     12 C         142.2417  141.4304  168.3104 C.ar    1  UNL1        0.1543
     13 O         142.7457  140.8820  167.0085 O.2     1  UNL1       -0.4531
     14 H         138.5286  140.5350  170.1664 H       1  UNL1        0.2922
     15 H         143.0997  144.2572  171.9877 H       1  UNL1        0.2922
     16 C         143.4196  138.2689  162.3214 C.ar    1  UNL1        0.1387
     17 C         144.2792  139.1969  163.1275 C.ar    1  UNL1        0.0370
     18 C         143.7751  139.7453  164.4295 C.ar    1  UNL1        0.0061
     19 C         142.4114  139.3656  164.9254 C.ar    1  UNL1        0.0349
     20 C         141.5517  138.4376  164.1194 C.ar    1  UNL1        0.0061
     21 C         142.0558  137.8892  162.8175 C.ar    1  UNL1        0.0370
     22 C         142.9815  137.5414  159.8661 C.3     1  UNL1        0.2525
     23 O         143.9236  137.7205  161.0195 O.3     1  UNL1       -0.4714
@<TRIPOS>BOND
     1    22    23    1
     2    23    16    1
     3    16    17   ar
     4    17    18   ar
     5    18    19   ar
     6    19     1    1
     7     1     2   ar
     8     2     3   ar
     9     3     4    2
    10     3     5   ar
    11     5     6   ar
    12     6     7    1
    13     6     8   ar
    14     8     9   ar
    15     9    10    1
    16     9    11   ar
    17    11    12   ar
    18    12    13   ar
    19    19    20   ar
    20    20    21   ar
    21    21    16   ar
    22    13     1   ar
    23    12     5   ar
    24     7    14    1
    25    10    15    1
@<TRIPOS>MOLECULE
*****
 23 25 0 0 0
SMALL
GASTEIGER

@<TRIPOS>ATOM
      1 C         141.9575  139.6871  166.6707 C.ar    1  UNL1        0.1484
      2 C         142.5973  138.9374  167.8014 C.ar    1  UNL1        0.0797
      3 C         142.5665  139.5044  169.1897 C.ar    1  UNL1        0.2046
      4 O         143.2063  138.7547  170.3205 O.2     1  UNL1       -0.2863
      5 C         141.8959  140.8212  169.4473 C.ar    1  UNL1        0.1073
      6 C         141.8650  141.3883  170.8357 C.ar    1  UNL1        0.1427
      7 O         142.5048  140.6386  171.9664 O.3     1  UNL1       -0.5052
      8 C         141.1944  142.7051  171.0933 C.ar    1  UNL1        0.0735
      9 C         140.5546  143.4548  169.9625 C.ar    1  UNL1        0.1397
     10 O         139.8840  144.7716  170.2201 O.3     1  UNL1       -0.5053
     11 C         140.5855  142.8877  168.5742 C.ar    1  UNL1        0.0744
     12 C         141.2561  141.5709  168.3166 C.ar    1  UNL1        0.1543
     13 O         141.2869  141.0039  166.9283 O.2     1  UNL1       -0.4531
     14 H         142.9237  139.8160  171.8055 H       1  UNL1        0.2922
     15 H         139.8647  145.1258  171.0873 H       1  UNL1        0.2922
     16 C         142.0500  137.9859  162.5056 C.ar    1  UNL1        0.1387
     17 C         142.8060  139.2429  162.8193 C.ar    1  UNL1        0.0370
     18 C         142.7752  139.8100  164.2077 C.ar    1  UNL1        0.0061
     19 C         141.9884  139.1200  165.2823 C.ar    1  UNL1        0.0349
     20 C         141.2323  137.8631  164.9686 C.ar    1  UNL1        0.0061
     21 C         141.2631  137.2960  163.5803 C.ar    1  UNL1        0.0370
     22 C         143.1308  137.8703  160.1459 C.3     1  UNL1        0.2525
     23 O         142.0808  137.4189  161.1173 O.3     1  UNL1       -0.4714
@<TRIPOS>BOND
     1    22    23    1
     2    23    16    1
     3    16    17   ar
     4    17    18   ar
     5    18    19   ar
     6    19     1    1
     7     1     2   ar
     8     2     3   ar
     9     3     4    2
    10     3     5   ar
    11     5     6   ar
    12     6     7    1
    13     6     8   ar
    14     8     9   ar
    15     9    10    1
    16     9    11   ar
    17    11    12   ar
    18    12    13   ar
    19    19    20   ar
    20    20    21   ar
    21    21    16   ar
    22    13     1   ar
    23    12     5   ar
    24     7    14    1
    25    10    15    1
@<TRIPOS>MOLECULE
*****
 23 25 0 0 0
SMALL
GASTEIGER

@<TRIPOS>ATOM
      1 C         140.4724  142.8626  166.7257 C.ar    1  UNL1        0.1484
      2 C         140.0176  143.6345  167.9287 C.ar    1  UNL1        0.0797
      3 C         140.2927  143.1075  169.3059 C.ar    1  UNL1        0.2046
      4 O         139.8379  143.8794  170.5090 O.2     1  UNL1       -0.2863
      5 C         141.0227  141.8087  169.4800 C.ar    1  UNL1        0.1073
      6 C         141.2978  141.2818  170.8572 C.ar    1  UNL1        0.1427
      7 O         140.8430  142.0536  172.0602 O.3     1  UNL1       -0.5052
      8 C         142.0277  139.9829  171.0313 C.ar    1  UNL1        0.0735
      9 C         142.4825  139.2111  169.8281 C.ar    1  UNL1        0.1397
     10 O         143.2124  137.9123  170.0022 O.3     1  UNL1       -0.5053
     11 C         142.2074  139.7381  168.4510 C.ar    1  UNL1        0.0744
     12 C         141.4775  141.0369  168.2769 C.ar    1  UNL1        0.1543
     13 O         141.2023  141.5638  166.8998 O.2     1  UNL1       -0.4531
     14 H         140.3870  142.8649  171.9515 H       1  UNL1        0.2922
     15 H         143.3843  137.5831  170.8625 H       1  UNL1        0.2922
     16 C         139.6470  144.4435  162.5941 C.ar    1  UNL1        0.1387
     17 C         140.9616  143.7879  162.8975 C.ar    1  UNL1        0.0370
     18 C         141.2367  143.2610  164.2747 C.ar    1  UNL1        0.0061
     19 C         140.1973  143.3896  165.3484 C.ar    1  UNL1        0.0349
     20 C         138.8827  144.0452  165.0450 C.ar    1  UNL1        0.0061
     21 C         138.6075  144.5721  163.6679 C.ar    1  UNL1        0.0370
     22 C         140.5079  145.4064  160.3399 C.3     1  UNL1        0.2525
     23 O         139.3718  144.9704  161.2169 O.3     1  UNL1       -0.4714
@<TRIPOS>BOND
     1    22    23    1
     2    23    16    1
     3    16    17   ar
     4    17    18   ar
     5    18    19   ar
     6    19     1    1
     7     1     2   ar
     8     2     3   ar
     9     3     4    2
    10     3     5   ar
    11     5     6   ar
    12     6     7    1
    13     6     8   ar
    14     8     9   ar
    15     9    10    1
    16     9    11   ar
    17    11    12   ar
    18    12    13   ar
    19    19    20   ar
    20    20    21   ar
    21    21    16   ar
    22    13     1   ar
    23    12     5   ar
    24     7    14    1
    25    10    15    1
@<TRIPOS>MOLECULE
*****
 23 25 0 0 0
SMALL
GASTEIGER

@<TRIPOS>ATOM
      1 C         141.0512  142.6372  165.7634 C.ar    1  UNL1        0.1484
      2 C         141.8827  141.3994  165.6013 C.ar    1  UNL1        0.0797
      3 C         142.2399  140.5734  166.8013 C.ar    1  UNL1        0.2046
      4 O         143.0715  139.3355  166.6392 O.2     1  UNL1       -0.2863
      5 C         141.7657  140.9853  168.1635 C.ar    1  UNL1        0.1073
      6 C         142.1231  140.1593  169.3635 C.ar    1  UNL1        0.1427
      7 O         142.9545  138.9214  169.2014 O.3     1  UNL1       -0.5052
      8 C         141.6488  140.5711  170.7257 C.ar    1  UNL1        0.0735
      9 C         140.8173  141.8091  170.8878 C.ar    1  UNL1        0.1397
     10 O         140.3431  142.2209  172.2499 O.3     1  UNL1       -0.5053
     11 C         140.4600  142.6350  169.6878 C.ar    1  UNL1        0.0744
     12 C         140.9343  142.2231  168.3256 C.ar    1  UNL1        0.1543
     13 O         140.5770  143.0491  167.1256 O.2     1  UNL1       -0.4531
     14 H         143.2508  138.6642  168.3505 H       1  UNL1        0.2922
     15 H         140.5663  141.7050  172.9996 H       1  UNL1        0.2922
     16 C         139.9792  145.1153  162.1633 C.ar    1  UNL1        0.1387
     17 C         141.3838  144.6200  162.3416 C.ar    1  UNL1        0.0370
     18 C         141.7411  143.7940  163.5417 C.ar    1  UNL1        0.0061
     19 C         140.6939  143.4633  164.5634 C.ar    1  UNL1        0.0349
     20 C         139.2893  143.9586  164.3851 C.ar    1  UNL1        0.0061
     21 C         138.9319  144.7846  163.1851 C.ar    1  UNL1        0.0370
     22 C         140.2382  145.6340  159.6308 C.3     1  UNL1        0.2525
     23 O         139.6218  145.9413  160.9634 O.3     1  UNL1       -0.4714
@<TRIPOS>BOND
     1    22    23    1
     2    23    16    1
     3    16    17   ar
     4    17    18   ar
     5    18    19   ar
     6    19     1    1
     7     1     2   ar
     8     2     3   ar
     9     3     4    2
    10     3     5   ar
    11     5     6   ar
    12     6     7    1
    13     6     8   ar
    14     8     9   ar
    15     9    10    1
    16     9    11   ar
    17    11    12   ar
    18    12    13   ar
    19    19    20   ar
    20    20    21   ar
    21    21    16   ar
    22    13     1   ar
    23    12     5   ar
    24     7    14    1
    25    10    15    1
@<TRIPOS>MOLECULE
*****
 23 25 0 0 0
SMALL
GASTEIGER

@<TRIPOS>ATOM
      1 C         140.4614  141.9987  165.9203 C.ar    1  UNL1        0.1484
      2 C         141.8333  142.5289  166.2146 C.ar    1  UNL1        0.0797
      3 C         142.4704  142.2628  167.5462 C.ar    1  UNL1        0.2046
      4 O         143.8424  142.7931  167.8406 O.2     1  UNL1       -0.2863
      5 C         141.7356  141.4665  168.5835 C.ar    1  UNL1        0.1073
      6 C         142.3728  141.2004  169.9152 C.ar    1  UNL1        0.1427
      7 O         143.7447  141.7306  170.2095 O.3     1  UNL1       -0.5052
      8 C         141.6381  140.4040  170.9524 C.ar    1  UNL1        0.0735
      9 C         140.2661  139.8738  170.6580 C.ar    1  UNL1        0.1397
     10 O         139.5313  139.0774  171.6953 O.3     1  UNL1       -0.5053
     11 C         139.6290  140.1399  169.3264 C.ar    1  UNL1        0.0744
     12 C         140.3637  140.9362  168.2892 C.ar    1  UNL1        0.1543
     13 O         139.7266  141.2023  166.9576 O.2     1  UNL1       -0.4531
     14 H         144.2037  142.2281  169.5615 H       1  UNL1        0.2922
     15 H         139.9293  138.9112  172.5271 H       1  UNL1        0.2922
     16 C         138.5498  142.7970  161.9254 C.ar    1  UNL1        0.1387
     17 C         140.0251  142.9997  162.1048 C.ar    1  UNL1        0.0370
     18 C         140.6623  142.7336  163.4364 C.ar    1  UNL1        0.0061
     19 C         139.8242  142.2648  164.5886 C.ar    1  UNL1        0.0349
     20 C         138.3488  142.0621  164.4093 C.ar    1  UNL1        0.0061
     21 C         137.7116  142.3281  163.0777 C.ar    1  UNL1        0.0370
     22 C         138.5429  142.5310  159.3411 C.3     1  UNL1        0.2525
     23 O         137.9126  143.0631  160.5938 O.3     1  UNL1       -0.4714
@<TRIPOS>BOND
     1    22    23    1
     2    23    16    1
     3    16    17   ar
     4    17    18   ar
     5    18    19   ar
     6    19     1    1
     7     1     2   ar
     8     2     3   ar
     9     3     4    2
    10     3     5   ar
    11     5     6   ar
    12     6     7    1
    13     6     8   ar
    14     8     9   ar
    15     9    10    1
    16     9    11   ar
    17    11    12   ar
    18    12    13   ar
    19    19    20   ar
    20    20    21   ar
    21    21    16   ar
    22    13     1   ar
    23    12     5   ar
    24     7    14    1
    25    10    15    1
@<TRIPOS>MOLECULE
*****
 23 25 0 0 0
SMALL
GASTEIGER

@<TRIPOS>ATOM
      1 C         142.7012  141.9663  166.4159 C.ar    1  UNL1        0.1484
      2 C         143.5688  142.5235  167.5052 C.ar    1  UNL1        0.0797
      3 C         143.1384  142.4120  168.9378 C.ar    1  UNL1        0.2046
      4 O         144.0060  142.9693  170.0272 O.2     1  UNL1       -0.2863
      5 C         141.8404  141.7433  169.2810 C.ar    1  UNL1        0.1073
      6 C         141.4100  141.6318  170.7137 C.ar    1  UNL1        0.1427
      7 O         142.2776  142.1890  171.8030 O.3     1  UNL1       -0.5052
      8 C         140.1119  140.9630  171.0569 C.ar    1  UNL1        0.0735
      9 C         139.2443  140.4057  169.9675 C.ar    1  UNL1        0.1397
     10 O         137.9462  139.7369  170.3108 O.3     1  UNL1       -0.5053
     11 C         139.6747  140.5172  168.5350 C.ar    1  UNL1        0.0744
     12 C         140.9727  141.1860  168.1917 C.ar    1  UNL1        0.1543
     13 O         141.4031  141.2975  166.7592 O.2     1  UNL1       -0.4531
     14 H         143.0884  142.6068  171.5886 H       1  UNL1        0.2922
     15 H         137.6774  139.6673  171.2057 H       1  UNL1        0.2922
     16 C         143.9923  142.3008  162.1180 C.ar    1  UNL1        0.1387
     17 C         145.0202  142.2767  163.2102 C.ar    1  UNL1        0.0370
     18 C         144.5898  142.1652  164.6429 C.ar    1  UNL1        0.0061
     19 C         143.1316  142.0778  164.9833 C.ar    1  UNL1        0.0349
     20 C         142.1037  142.1019  163.8911 C.ar    1  UNL1        0.0061
     21 C         142.5340  142.2134  162.4585 C.ar    1  UNL1        0.0370
     22 C         143.4654  142.9294  159.6529 C.3     1  UNL1        0.2525
     23 O         144.4226  142.4123  160.6855 O.3     1  UNL1       -0.4714
@<TRIPOS>BOND
     1    22    23    1
     2    23    16    1
     3    16    17   ar
     4    17    18   ar
     5    18    19   ar
     6    19     1    1
     7     1     2   ar
     8     2     3   ar
     9     3     4    2
    10     3     5   ar
    11     5     6   ar
    12     6     7    1
    13     6     8   ar
    14     8     9   ar
    15     9    10    1
    16     9    11   ar
    17    11    12   ar
    18    12    13   ar
    19    19    20   ar
    20    20    21   ar
    21    21    16   ar
    22    13     1   ar
    23    12     5   ar
    24     7    14    1
    25    10    15    1
@<TRIPOS>MOLECULE
*****
 23 25 0 0 0
SMALL
GASTEIGER

@<TRIPOS>ATOM
      1 C         141.5548  140.0870  165.9912 C.ar    1  UNL1        0.1484
      2 C         140.1980  139.4930  166.2279 C.ar    1  UNL1        0.0797
      3 C         139.5420  139.6321  167.5696 C.ar    1  UNL1        0.2046
      4 O         138.1851  139.0381  167.8063 O.2     1  UNL1       -0.2863
      5 C         140.2430  140.3651  168.6748 C.ar    1  UNL1        0.1073
      6 C         139.5870  140.5041  170.0166 C.ar    1  UNL1        0.1427
      7 O         138.2301  139.9101  170.2532 O.3     1  UNL1       -0.5052
      8 C         140.2880  141.2371  171.1218 C.ar    1  UNL1        0.0735
      9 C         141.6449  141.8311  170.8851 C.ar    1  UNL1        0.1397
     10 O         142.3459  142.5641  171.9902 O.3     1  UNL1       -0.5053
     11 C         142.3008  141.6921  169.5433 C.ar    1  UNL1        0.0744
     12 C         141.5999  140.9591  168.4382 C.ar    1  UNL1        0.1543
     13 O         142.2558  140.8200  167.0964 O.2     1  UNL1       -0.4531
     14 H         137.7923  139.4523  169.5629 H       1  UNL1        0.2922
     15 H         141.9361  142.6509  172.8284 H       1  UNL1        0.2922
     16 C         143.5228  139.6699  161.9658 C.ar    1  UNL1        0.1387
     17 C         142.2708  140.4837  162.1078 C.ar    1  UNL1        0.0370
     18 C         141.6148  140.6227  163.4497 C.ar    1  UNL1        0.0061
     19 C         142.2108  139.9480  164.6494 C.ar    1  UNL1        0.0349
     20 C         143.4629  139.1342  164.5074 C.ar    1  UNL1        0.0061
     21 C         144.1189  138.9952  163.1657 C.ar    1  UNL1        0.0370
     22 C         143.4397  139.9338  159.3826 C.3     1  UNL1        0.2525
     23 O         144.1788  139.5309  160.6241 O.3     1  UNL1       -0.4714
@<TRIPOS>BOND
     1    22    23    1
     2    23    16    1
     3    16    17   ar
     4    17    18   ar
     5    18    19   ar
     6    19     1    1
     7     1     2   ar
     8     2     3   ar
     9     3     4    2
    10     3     5   ar
    11     5     6   ar
    12     6     7    1
    13     6     8   ar
    14     8     9   ar
    15     9    10    1
    16     9    11   ar
    17    11    12   ar
    18    12    13   ar
    19    19    20   ar
    20    20    21   ar
    21    21    16   ar
    22    13     1   ar
    23    12     5   ar
    24     7    14    1
    25    10    15    1
@<TRIPOS>MOLECULE
*****
 23 25 0 0 0
SMALL
GASTEIGER

@<TRIPOS>ATOM
      1 C         139.5283  139.5397  165.1597 C.ar    1  UNL1        0.1484
      2 C         138.4927  138.8254  165.9767 C.ar    1  UNL1        0.0797
      3 C         138.3561  139.1229  167.4405 C.ar    1  UNL1        0.2046
      4 O         137.3205  138.4086  168.2576 O.2     1  UNL1       -0.2863
      5 C         139.2549  140.1347  168.0873 C.ar    1  UNL1        0.1073
      6 C         139.1182  140.4322  169.5512 C.ar    1  UNL1        0.1427
      7 O         138.0827  139.7179  170.3682 O.3     1  UNL1       -0.5052
      8 C         140.0170  141.4440  170.1981 C.ar    1  UNL1        0.0735
      9 C         141.0526  142.1582  169.3810 C.ar    1  UNL1        0.1397
     10 O         141.9514  143.1700  170.0278 O.3     1  UNL1       -0.5053
     11 C         141.1893  141.8607  167.9172 C.ar    1  UNL1        0.0744
     12 C         140.2904  140.8490  167.2704 C.ar    1  UNL1        0.1543
     13 O         140.4271  140.5514  165.8066 O.2     1  UNL1       -0.4531
     14 H         137.5212  139.0859  169.9641 H       1  UNL1        0.2922
     15 H         141.8660  143.3559  170.9422 H       1  UNL1        0.2922
     16 C         139.9384  138.6472  160.7682 C.ar    1  UNL1        0.1387
     17 C         140.9500  139.5164  161.4545 C.ar    1  UNL1        0.0370
     18 C         140.8133  139.8139  162.9184 C.ar    1  UNL1        0.0061
     19 C         139.6650  139.2422  163.6959 C.ar    1  UNL1        0.0349
     20 C         138.6534  138.3729  163.0095 C.ar    1  UNL1        0.0061
     21 C         138.7901  138.0754  161.5457 C.ar    1  UNL1        0.0370
     22 C         139.3870  139.2198  158.2948 C.3     1  UNL1        0.2525
     23 O         140.0751  138.3496  159.3044 O.3     1  UNL1       -0.4714
@<TRIPOS>BOND
     1    22    23    1
     2    23    16    1
     3    16    17   ar
     4    17    18   ar
     5    18    19   ar
     6    19     1    1
     7     1     2   ar
     8     2     3   ar
     9     3     4    2
    10     3     5   ar
    11     5     6   ar
    12     6     7    1
    13     6     8   ar
    14     8     9   ar
    15     9    10    1
    16     9    11   ar
    17    11    12   ar
    18    12    13   ar
    19    19    20   ar
    20    20    21   ar
    21    21    16   ar
    22    13     1   ar
    23    12     5   ar
    24     7    14    1
    25    10    15    1
