@<TRIPOS>MOLECULE
*****
 35 39 0 0 0
SMALL
GASTEIGER

@<TRIPOS>ATOM
      1 N         139.9044  141.4572  165.6423 N.3     1  UNL1       -0.2678
      2 C         140.6476  142.0635  166.7956 C.3     1  UNL1        0.1023
      3 C         140.6824  141.6136  168.2261 C.ar    1  UNL1        0.0301
      4 C         141.5542  142.5051  169.0599 C.ar    1  UNL1        0.0297
      5 C         141.7261  142.2292  170.5243 C.ar    1  UNL1        0.1401
      6 F         142.5979  143.1207  171.3581 F       1  UNL1       -0.2042
      7 C         141.0263  141.0619  171.1548 C.ar    1  UNL1        0.0327
      8 C         140.1546  140.1704  170.3210 C.ar    1  UNL1        0.0389
      9 C         139.9826  140.4462  168.8567 C.ar    1  UNL1        0.1360
     10 O         139.0752  139.4405  168.2124 O.3     1  UNL1       -0.4743
     11 C         138.6434  139.3537  166.7785 C.3     1  UNL1        0.2215
     12 C         139.0125  140.2512  165.6347 C.3     1  UNL1        0.1061
     13 N         140.4187  143.5304  161.6816 N.pl3   1  UNL1       -0.2769
     14 C         141.5346  142.7007  162.2443 C.3     1  UNL1        0.0950
     15 C         141.3631  142.0097  163.5646 C.3     1  UNL1        0.0375
     16 C         140.0759  142.1483  164.3221 C.3     1  UNL1        0.0613
     17 C         138.9600  142.9779  163.7593 C.3     1  UNL1        0.0375
     18 C         139.1315  143.6689  162.4390 C.3     1  UNL1        0.0950
     19 N         142.5075  146.2776  157.6853 N.pl3   1  UNL1       -0.3278
     20 C         141.5502  145.4842  158.5244 C.ar    1  UNL1        0.2099
     21 N         141.8175  144.9502  159.9004 N.ar    1  UNL1       -0.1804
     22 C         140.5901  144.2214  160.3614 C.ar    1  UNL1        0.2395
     23 N         139.5642  144.3050  159.2702 N.ar    1  UNL1       -0.1349
     24 N         140.1576  145.0855  158.1349 N.ar    1  UNL1       -0.2453
     25 H         143.4047  146.4904  158.0301 H       1  UNL1        0.1451
     26 H         142.2385  146.5855  156.7897 H       1  UNL1        0.1451
     27 H         139.7114  145.2986  157.2836 H       1  UNL1        0.1919
     28 C         138.4099  139.8958  164.3079 C.3     1  UNL1        0.0461
     29 C         139.2812  139.3742  163.2040 C.ar    1  UNL1       -0.0207
     30 C         139.0253  139.7909  161.7859 C.ar    1  UNL1       -0.0034
     31 C         139.8966  139.2694  160.6820 C.ar    1  UNL1        0.0111
     32 C         141.0240  138.3311  160.9961 C.ar    1  UNL1        0.0577
     33 CL        141.8954  137.8096  159.8921 Cl      1  UNL1       -0.0822
     34 C         141.2800  137.9144  162.4141 C.ar    1  UNL1        0.0111
     35 C         140.4086  138.4360  163.5181 C.ar    1  UNL1       -0.0034
@<TRIPOS>BOND
     1    19    20    1
     2    20    21   ar
     3    21    22   ar
     4    22    13    1
     5    13    14    1
     6    14    15    1
     7    15    16    1
     8    16     1    1
     9     1     2    1
    10     2     3    1
    11     3     4   ar
    12     4     5   ar
    13     5     6    1
    14     5     7   ar
    15     7     8   ar
    16     8     9   ar
    17     9    10    1
    18    10    11    1
    19    11    12    1
    20    12    28    1
    21    28    29    1
    22    29    30   ar
    23    30    31   ar
    24    31    32   ar
    25    32    33    1
    26    32    34   ar
    27    34    35   ar
    28    16    17    1
    29    17    18    1
    30    22    23   ar
    31    23    24   ar
    32    24    20   ar
    33    18    13    1
    34    12     1    1
    35    35    29   ar
    36     9     3   ar
    37    19    25    1
    38    19    26    1
    39    24    27    1
@<TRIPOS>MOLECULE
*****
 35 39 0 0 0
SMALL
GASTEIGER

@<TRIPOS>ATOM
      1 N         140.4654  141.9391  164.9520 N.3     1  UNL1       -0.2678
      2 C         141.5510  142.1912  165.9559 C.3     1  UNL1        0.1023
      3 C         141.7111  141.6054  167.3275 C.ar    1  UNL1        0.0301
      4 C         142.9434  142.1264  168.0055 C.ar    1  UNL1        0.0297
      5 C         143.2895  141.6648  169.3901 C.ar    1  UNL1        0.1401
      6 F         144.5219  142.1859  170.0683 F       1  UNL1       -0.2042
      7 C         142.4033  140.6822  170.0966 C.ar    1  UNL1        0.0327
      8 C         141.1710  140.1612  169.4185 C.ar    1  UNL1        0.0389
      9 C         140.8248  140.6228  168.0339 C.ar    1  UNL1        0.1360
     10 O         139.5598  139.9833  167.5433 O.3     1  UNL1       -0.4743
     11 C         138.8684  140.1685  166.2250 C.3     1  UNL1        0.2215
     12 C         139.2715  141.0389  165.0718 C.3     1  UNL1        0.1061
     13 N         140.8394  144.1796  161.0674 N.pl3   1  UNL1       -0.2769
     14 C         139.7777  144.5632  162.0552 C.3     1  UNL1        0.0950
     15 C         139.6531  143.8163  163.3501 C.3     1  UNL1        0.0375
     16 C         140.5900  142.6859  163.6571 C.3     1  UNL1        0.0613
     17 C         141.6517  142.3023  162.6693 C.3     1  UNL1        0.0375
     18 C         141.7763  143.0492  161.3744 C.3     1  UNL1        0.0950
     19 N         139.6619  147.0221  156.7762 N.pl3   1  UNL1       -0.3278
     20 C         140.4228  146.2330  157.8001 C.ar    1  UNL1        0.2099
     21 N         139.8512  145.6199  159.0440 N.ar    1  UNL1       -0.1804
     22 C         140.9640  144.9264  159.7725 C.ar    1  UNL1        0.2395
     23 N         142.2234  145.1108  158.9788 N.ar    1  UNL1       -0.1349
     24 N         141.8889  145.9184  157.7597 N.ar    1  UNL1       -0.2453
     25 H         138.6964  147.1762  156.8913 H       1  UNL1        0.1451
     26 H         140.1280  147.3859  155.9890 H       1  UNL1        0.1451
     27 H         142.5207  146.1935  157.0566 H       1  UNL1        0.1919
     28 C         138.3602  141.0046  163.8809 C.3     1  UNL1        0.0461
     29 C         138.7689  140.2594  162.6449 C.ar    1  UNL1       -0.0207
     30 C         139.6753  139.0690  162.7521 C.ar    1  UNL1       -0.0034
     31 C         140.0840  138.3238  161.5162 C.ar    1  UNL1        0.0111
     32 C         139.5864  138.7690  160.1730 C.ar    1  UNL1        0.0577
     33 CL        139.9952  138.0237  158.9370 Cl      1  UNL1       -0.0822
     34 C         138.6801  139.9594  160.0657 C.ar    1  UNL1        0.0111
     35 C         138.2713  140.7046  161.3017 C.ar    1  UNL1       -0.0034
@<TRIPOS>BOND
     1    19    20    1
     2    20    21   ar
     3    21    22   ar
     4    22    13    1
     5    13    14    1
     6    14    15    1
     7    15    16    1
     8    16     1    1
     9     1     2    1
    10     2     3    1
    11     3     4   ar
    12     4     5   ar
    13     5     6    1
    14     5     7   ar
    15     7     8   ar
    16     8     9   ar
    17     9    10    1
    18    10    11    1
    19    11    12    1
    20    12    28    1
    21    28    29    1
    22    29    30   ar
    23    30    31   ar
    24    31    32   ar
    25    32    33    1
    26    32    34   ar
    27    34    35   ar
    28    16    17    1
    29    17    18    1
    30    22    23   ar
    31    23    24   ar
    32    24    20   ar
    33    18    13    1
    34    12     1    1
    35    35    29   ar
    36     9     3   ar
    37    19    25    1
    38    19    26    1
    39    24    27    1
@<TRIPOS>MOLECULE
*****
 35 39 0 0 0
SMALL
GASTEIGER

@<TRIPOS>ATOM
      1 N         140.8941  140.1527  164.9166 N.3     1  UNL1       -0.2678
      2 C         141.2153  141.1821  165.9593 C.3     1  UNL1        0.1023
      3 C         140.6731  141.3030  167.3526 C.ar    1  UNL1        0.0301
      4 C         141.2601  142.4831  168.0687 C.ar    1  UNL1        0.0297
      5 C         140.8496  142.7845  169.4795 C.ar    1  UNL1        0.1401
      6 F         141.4366  143.9646  170.1956 F       1  UNL1       -0.2042
      7 C         139.8519  141.9059  170.1743 C.ar    1  UNL1        0.0327
      8 C         139.2649  140.7258  169.4583 C.ar    1  UNL1        0.0389
      9 C         139.6754  140.4244  168.0474 C.ar    1  UNL1        0.1360
     10 O         138.9738  139.2078  167.5205 O.3     1  UNL1       -0.4743
     11 C         139.0964  138.5694  166.1687 C.3     1  UNL1        0.2215
     12 C         139.9510  138.9899  165.0099 C.3     1  UNL1        0.1061
     13 N         143.0433  140.6136  160.9901 N.pl3   1  UNL1       -0.2769
     14 C         143.4457  139.5266  161.9422 C.3     1  UNL1        0.0950
     15 C         142.7292  139.3730  163.2511 C.3     1  UNL1        0.0375
     16 C         141.6104  140.3063  163.6078 C.3     1  UNL1        0.0613
     17 C         141.2081  141.3934  162.6557 C.3     1  UNL1        0.0375
     18 C         141.9246  141.5470  161.3468 C.3     1  UNL1        0.0950
     19 N         145.6578  142.7164  156.9129 N.pl3   1  UNL1       -0.3278
     20 C         144.9615  141.7338  157.8072 C.ar    1  UNL1        0.2099
     21 N         144.3415  142.0389  159.1385 N.ar    1  UNL1       -0.1804
     22 C         143.7597  140.7673  159.6813 C.ar    1  UNL1        0.2395
     23 N         144.0201  139.6763  158.6853 N.ar    1  UNL1       -0.1349
     24 N         144.7629  140.2736  157.5270 N.ar    1  UNL1       -0.2453
     25 H         145.7382  143.6589  157.1855 H       1  UNL1        0.1451
     26 H         146.0343  142.4187  156.0534 H       1  UNL1        0.1451
     27 H         145.0667  139.7919  156.7240 H       1  UNL1        0.1919
     28 C         139.8491  138.1346  163.7819 C.3     1  UNL1        0.0461
     29 C         139.2663  138.6996  162.5205 C.ar    1  UNL1       -0.0207
     30 C         139.8296  138.2995  161.1891 C.ar    1  UNL1       -0.0034
     31 C         139.2469  138.8646  159.9277 C.ar    1  UNL1        0.0111
     32 C         138.1008  139.8298  159.9977 C.ar    1  UNL1        0.0577
     33 CL        137.5181  140.3948  158.7363 Cl      1  UNL1       -0.0822
     34 C         137.5375  140.2299  161.3291 C.ar    1  UNL1        0.0111
     35 C         138.1203  139.6649  162.5905 C.ar    1  UNL1       -0.0034
@<TRIPOS>BOND
     1    19    20    1
     2    20    21   ar
     3    21    22   ar
     4    22    13    1
     5    13    14    1
     6    14    15    1
     7    15    16    1
     8    16     1    1
     9     1     2    1
    10     2     3    1
    11     3     4   ar
    12     4     5   ar
    13     5     6    1
    14     5     7   ar
    15     7     8   ar
    16     8     9   ar
    17     9    10    1
    18    10    11    1
    19    11    12    1
    20    12    28    1
    21    28    29    1
    22    29    30   ar
    23    30    31   ar
    24    31    32   ar
    25    32    33    1
    26    32    34   ar
    27    34    35   ar
    28    16    17    1
    29    17    18    1
    30    22    23   ar
    31    23    24   ar
    32    24    20   ar
    33    18    13    1
    34    12     1    1
    35    35    29   ar
    36     9     3   ar
    37    19    25    1
    38    19    26    1
    39    24    27    1
@<TRIPOS>MOLECULE
*****
 35 39 0 0 0
SMALL
GASTEIGER

@<TRIPOS>ATOM
      1 N         139.7191  143.3029  160.4749 N.3     1  UNL1       -0.2678
      2 C         139.0076  142.8106  159.2496 C.3     1  UNL1        0.1023
      3 C         139.0545  143.3625  157.8556 C.ar    1  UNL1        0.0301
      4 C         138.1896  142.5682  156.9223 C.ar    1  UNL1        0.0297
      5 C         138.0948  142.9545  155.4760 C.ar    1  UNL1        0.1401
      6 F         137.2299  142.1602  154.5427 F       1  UNL1       -0.2042
      7 C         138.8649  144.1352  154.9631 C.ar    1  UNL1        0.0327
      8 C         139.7297  144.9295  155.8963 C.ar    1  UNL1        0.0389
      9 C         139.8245  144.5431  157.3426 C.ar    1  UNL1        0.1360
     10 O         140.7379  145.4634  158.0969 O.3     1  UNL1       -0.4743
     11 C         141.1067  145.4304  159.5505 C.3     1  UNL1        0.2215
     12 C         140.6533  144.4689  160.6088 C.3     1  UNL1        0.1061
     13 N         138.9494  140.9744  164.2478 N.pl3   1  UNL1       -0.2769
     14 C         138.1764  142.2296  163.9703 C.3     1  UNL1        0.0950
     15 C         138.4330  143.0058  162.7126 C.3     1  UNL1        0.0375
     16 C         139.4625  142.5268  161.7325 C.3     1  UNL1        0.0613
     17 C         140.2355  141.2715  162.0101 C.3     1  UNL1        0.0375
     18 C         139.9789  140.4954  163.2678 C.3     1  UNL1        0.0950
     19 N         136.9777  137.4751  167.6753 N.pl3   1  UNL1       -0.3278
     20 C         137.7865  138.5898  167.0809 C.ar    1  UNL1        0.2099
     21 N         137.7145  139.0720  165.6625 N.ar    1  UNL1       -0.1804
     22 C         138.6928  140.1982  165.5054 C.ar    1  UNL1        0.2395
     23 N         139.3695  140.4120  166.8270 N.ar    1  UNL1       -0.1349
     24 N         138.8094  139.4178  167.8007 N.ar    1  UNL1       -0.2453
     25 H         136.3277  136.9878  167.1192 H       1  UNL1        0.1451
     26 H         137.0969  137.2307  168.6215 H       1  UNL1        0.1451
     27 H         139.0677  139.3252  168.7462 H       1  UNL1        0.1919
     28 C         141.2074  144.7044  161.9826 C.3     1  UNL1        0.0461
     29 C         142.4195  143.9497  162.4420 C.ar    1  UNL1       -0.0207
     30 C         143.3703  143.3731  161.4351 C.ar    1  UNL1       -0.0034
     31 C         144.5824  142.6184  161.8945 C.ar    1  UNL1        0.0111
     32 C         144.8439  142.4403  163.3608 C.ar    1  UNL1        0.0577
     33 CL        146.0561  141.6855  163.8202 Cl      1  UNL1       -0.0822
     34 C         143.8933  143.0168  164.3676 C.ar    1  UNL1        0.0111
     35 C         142.6810  143.7716  163.9083 C.ar    1  UNL1       -0.0034
@<TRIPOS>BOND
     1    19    20    1
     2    20    21   ar
     3    21    22   ar
     4    22    13    1
     5    13    14    1
     6    14    15    1
     7    15    16    1
     8    16     1    1
     9     1     2    1
    10     2     3    1
    11     3     4   ar
    12     4     5   ar
    13     5     6    1
    14     5     7   ar
    15     7     8   ar
    16     8     9   ar
    17     9    10    1
    18    10    11    1
    19    11    12    1
    20    12    28    1
    21    28    29    1
    22    29    30   ar
    23    30    31   ar
    24    31    32   ar
    25    32    33    1
    26    32    34   ar
    27    34    35   ar
    28    16    17    1
    29    17    18    1
    30    22    23   ar
    31    23    24   ar
    32    24    20   ar
    33    18    13    1
    34    12     1    1
    35    35    29   ar
    36     9     3   ar
    37    19    25    1
    38    19    26    1
    39    24    27    1
@<TRIPOS>MOLECULE
*****
 35 39 0 0 0
SMALL
GASTEIGER

@<TRIPOS>ATOM
      1 N         141.3283  138.7710  161.4265 N.3     1  UNL1       -0.2678
      2 C         140.4332  138.8103  160.2234 C.3     1  UNL1        0.1023
      3 C         140.8153  138.8099  158.7729 C.ar    1  UNL1        0.0301
      4 C         139.6055  138.8569  157.8875 C.ar    1  UNL1        0.0297
      5 C         139.7673  138.8641  156.3963 C.ar    1  UNL1        0.1401
      6 F         138.5575  138.9110  155.5107 F       1  UNL1       -0.2042
      7 C         141.1390  138.8242  155.7905 C.ar    1  UNL1        0.0327
      8 C         142.3488  138.7772  156.6760 C.ar    1  UNL1        0.0389
      9 C         142.1870  138.7701  158.1671 C.ar    1  UNL1        0.1360
     10 O         143.5153  138.7208  158.8624 O.3     1  UNL1       -0.4743
     11 C         143.8000  138.6992  160.3349 C.3     1  UNL1        0.2215
     12 C         142.8267  138.7215  161.4760 C.3     1  UNL1        0.1061
     13 N         139.2428  138.8061  165.4139 N.pl3   1  UNL1       -0.2769
     14 C         139.8643  137.5397  164.9036 C.3     1  UNL1        0.0950
     15 C         140.5595  137.5281  163.5745 C.3     1  UNL1        0.0375
     16 C         140.6331  138.7827  162.7556 C.3     1  UNL1        0.0613
     17 C         140.0116  140.0490  163.2658 C.3     1  UNL1        0.0375
     18 C         139.3165  140.0606  164.5950 C.3     1  UNL1        0.0950
     19 N         138.0533  139.8572  170.4498 N.pl3   1  UNL1       -0.3278
     20 C         138.0009  139.3009  169.0577 C.ar    1  UNL1        0.2099
     21 N         138.9852  139.5773  167.9602 N.ar    1  UNL1       -0.1804
     22 C         138.5477  138.8177  166.7430 C.ar    1  UNL1        0.2395
     23 N         137.2929  138.0719  167.0883 N.ar    1  UNL1       -0.1349
     24 N         136.9550  138.3705  168.5189 N.ar    1  UNL1       -0.2453
     25 H         138.7838  140.4637  170.7103 H       1  UNL1        0.1451
     26 H         137.3573  139.6158  171.1029 H       1  UNL1        0.1451
     27 H         136.1823  138.0178  169.0168 H       1  UNL1        0.1919
     28 C         143.4317  138.6903  162.8482 C.3     1  UNL1        0.0461
     29 C         143.7857  139.9726  163.5412 C.ar    1  UNL1       -0.0207
     30 C         143.1429  140.3194  164.8514 C.ar    1  UNL1       -0.0034
     31 C         143.4969  141.6017  165.5444 C.ar    1  UNL1        0.0111
     32 C         144.4937  142.5374  164.9272 C.ar    1  UNL1        0.0577
     33 CL        144.8477  143.8198  165.6202 Cl      1  UNL1       -0.0822
     34 C         145.1365  142.1907  163.6170 C.ar    1  UNL1        0.0111
     35 C         144.7825  140.9083  162.9240 C.ar    1  UNL1       -0.0034
@<TRIPOS>BOND
     1    19    20    1
     2    20    21   ar
     3    21    22   ar
     4    22    13    1
     5    13    14    1
     6    14    15    1
     7    15    16    1
     8    16     1    1
     9     1     2    1
    10     2     3    1
    11     3     4   ar
    12     4     5   ar
    13     5     6    1
    14     5     7   ar
    15     7     8   ar
    16     8     9   ar
    17     9    10    1
    18    10    11    1
    19    11    12    1
    20    12    28    1
    21    28    29    1
    22    29    30   ar
    23    30    31   ar
    24    31    32   ar
    25    32    33    1
    26    32    34   ar
    27    34    35   ar
    28    16    17    1
    29    17    18    1
    30    22    23   ar
    31    23    24   ar
    32    24    20   ar
    33    18    13    1
    34    12     1    1
    35    35    29   ar
    36     9     3   ar
    37    19    25    1
    38    19    26    1
    39    24    27    1
@<TRIPOS>MOLECULE
*****
 35 39 0 0 0
SMALL
GASTEIGER

@<TRIPOS>ATOM
      1 N         141.9619  141.4213  165.5367 N.3     1  UNL1       -0.2678
      2 C         141.2812  142.1670  166.6459 C.3     1  UNL1        0.1023
      3 C         141.1113  141.7606  168.0798 C.ar    1  UNL1        0.0301
      4 C         140.3649  142.8019  168.8599 C.ar    1  UNL1        0.0297
      5 C         140.0874  142.5904  170.3187 C.ar    1  UNL1        0.1401
      6 F         139.3409  143.6317  171.0988 F       1  UNL1       -0.2042
      7 C         140.5563  141.3376  170.9974 C.ar    1  UNL1        0.0327
      8 C         141.3027  140.2964  170.2174 C.ar    1  UNL1        0.0389
      9 C         141.5803  140.5078  168.7586 C.ar    1  UNL1        0.1360
     10 O         142.3348  139.3522  168.1711 O.3     1  UNL1       -0.4743
     11 C         142.8069  139.1638  166.7598 C.3     1  UNL1        0.2215
     12 C         142.6409  140.0847  165.5874 C.3     1  UNL1        0.1061
     13 N         141.9679  143.4634  161.5268 N.pl3   1  UNL1       -0.2769
     14 C         143.2225  143.4195  162.3480 C.3     1  UNL1        0.0950
     15 C         143.2204  142.7387  163.6846 C.3     1  UNL1        0.0375
     16 C         141.9639  142.1020  164.2001 C.3     1  UNL1        0.0613
     17 C         140.7094  142.1459  163.3789 C.3     1  UNL1        0.0375
     18 C         140.7114  142.8267  162.0423 C.3     1  UNL1        0.0950
     19 N         140.5577  146.4643  157.4175 N.pl3   1  UNL1       -0.3278
     20 C         141.3217  145.5235  158.3014 C.ar    1  UNL1        0.2099
     21 N         140.9173  145.0812  159.6764 N.ar    1  UNL1       -0.1804
     22 C         141.9699  144.1441  160.1902 C.ar    1  UNL1        0.2395
     23 N         143.0249  144.0073  159.1327 N.ar    1  UNL1       -0.1349
     24 N         142.6243  144.8598  157.9652 N.ar    1  UNL1       -0.2453
     25 H         139.7074  146.8509  157.7286 H       1  UNL1        0.1451
     26 H         140.9066  146.6953  156.5264 H       1  UNL1        0.1451
     27 H         143.1278  144.9652  157.1258 H       1  UNL1        0.1919
     28 C         143.2321  139.6056  164.2948 C.3     1  UNL1        0.0461
     29 C         142.3341  139.2098  163.1604 C.ar    1  UNL1       -0.0207
     30 C         141.0605  138.4668  163.4362 C.ar    1  UNL1       -0.0034
     31 C         140.1624  138.0710  162.3019 C.ar    1  UNL1        0.0111
     32 C         140.5379  138.4181  160.8917 C.ar    1  UNL1        0.0577
     33 CL        139.6397  138.0223  159.7573 Cl      1  UNL1       -0.0822
     34 C         141.8114  139.1610  160.6159 C.ar    1  UNL1        0.0111
     35 C         142.7095  139.5569  161.7503 C.ar    1  UNL1       -0.0034
@<TRIPOS>BOND
     1    19    20    1
     2    20    21   ar
     3    21    22   ar
     4    22    13    1
     5    13    14    1
     6    14    15    1
     7    15    16    1
     8    16     1    1
     9     1     2    1
    10     2     3    1
    11     3     4   ar
    12     4     5   ar
    13     5     6    1
    14     5     7   ar
    15     7     8   ar
    16     8     9   ar
    17     9    10    1
    18    10    11    1
    19    11    12    1
    20    12    28    1
    21    28    29    1
    22    29    30   ar
    23    30    31   ar
    24    31    32   ar
    25    32    33    1
    26    32    34   ar
    27    34    35   ar
    28    16    17    1
    29    17    18    1
    30    22    23   ar
    31    23    24   ar
    32    24    20   ar
    33    18    13    1
    34    12     1    1
    35    35    29   ar
    36     9     3   ar
    37    19    25    1
    38    19    26    1
    39    24    27    1
@<TRIPOS>MOLECULE
*****
 35 39 0 0 0
SMALL
GASTEIGER

@<TRIPOS>ATOM
      1 N         143.1107  141.1388  164.1126 N.3     1  UNL1       -0.2678
      2 C         142.5888  140.4356  165.3305 C.3     1  UNL1        0.1023
      3 C         142.6833  140.8577  166.7668 C.ar    1  UNL1        0.0301
      4 C         142.0262  139.8612  167.6752 C.ar    1  UNL1        0.0297
      5 C         142.0090  140.0944  169.1568 C.ar    1  UNL1        0.1401
      6 F         141.3518  139.0979  170.0653 F       1  UNL1       -0.2042
      7 C         142.6488  141.3241  169.7300 C.ar    1  UNL1        0.0327
      8 C         143.3059  142.3205  168.8216 C.ar    1  UNL1        0.0389
      9 C         143.3231  142.0873  167.3400 C.ar    1  UNL1        0.1360
     10 O         144.0264  143.1985  166.6184 O.3     1  UNL1       -0.4743
     11 C         144.2637  143.3546  165.1456 C.3     1  UNL1        0.2215
     12 C         143.8561  142.4379  164.0304 C.3     1  UNL1        0.1061
     13 N         142.3383  139.0789  160.1871 N.pl3   1  UNL1       -0.2769
     14 C         143.7107  139.0502  160.7918 C.3     1  UNL1        0.0950
     15 C         143.9682  139.7368  162.1004 C.3     1  UNL1        0.0375
     16 C         142.8533  140.4522  162.8042 C.3     1  UNL1        0.0613
     17 C         141.4808  140.4809  162.1994 C.3     1  UNL1        0.0375
     18 C         141.2234  139.7943  160.8908 C.3     1  UNL1        0.0950
     19 N         139.8700  136.8547  156.0833 N.pl3   1  UNL1       -0.3278
     20 C         140.9463  137.3700  156.9923 C.ar    1  UNL1        0.2099
     21 N         140.7348  138.0441  158.3154 N.ar    1  UNL1       -0.1804
     22 C         142.0808  138.3923  158.8786 C.ar    1  UNL1        0.2395
     23 N         143.1241  137.9334  157.9034 N.ar    1  UNL1       -0.1349
     24 N         142.4229  137.3015  156.7376 N.ar    1  UNL1       -0.2453
     25 H         138.9238  136.9465  156.3393 H       1  UNL1        0.1451
     26 H         140.1098  136.4247  155.2308 H       1  UNL1        0.1451
     27 H         142.8559  136.9105  155.9445 H       1  UNL1        0.1919
     28 C         144.2455  142.8786  162.6505 C.3     1  UNL1        0.0461
     29 C         143.2272  143.5137  161.7507 C.ar    1  UNL1       -0.0207
     30 C         142.2097  144.4584  162.3187 C.ar    1  UNL1       -0.0034
     31 C         141.1914  145.0935  161.4189 C.ar    1  UNL1        0.0111
     32 C         141.1905  144.7840  159.9512 C.ar    1  UNL1        0.0577
     33 CL        140.1721  145.4192  159.0515 Cl      1  UNL1       -0.0822
     34 C         142.2078  143.8394  159.3832 C.ar    1  UNL1        0.0111
     35 C         143.2262  143.2042  160.2830 C.ar    1  UNL1       -0.0034
@<TRIPOS>BOND
     1    19    20    1
     2    20    21   ar
     3    21    22   ar
     4    22    13    1
     5    13    14    1
     6    14    15    1
     7    15    16    1
     8    16     1    1
     9     1     2    1
    10     2     3    1
    11     3     4   ar
    12     4     5   ar
    13     5     6    1
    14     5     7   ar
    15     7     8   ar
    16     8     9   ar
    17     9    10    1
    18    10    11    1
    19    11    12    1
    20    12    28    1
    21    28    29    1
    22    29    30   ar
    23    30    31   ar
    24    31    32   ar
    25    32    33    1
    26    32    34   ar
    27    34    35   ar
    28    16    17    1
    29    17    18    1
    30    22    23   ar
    31    23    24   ar
    32    24    20   ar
    33    18    13    1
    34    12     1    1
    35    35    29   ar
    36     9     3   ar
    37    19    25    1
    38    19    26    1
    39    24    27    1
@<TRIPOS>MOLECULE
*****
 35 39 0 0 0
SMALL
GASTEIGER

@<TRIPOS>ATOM
      1 N         141.0744  139.3593  162.1762 N.3     1  UNL1       -0.2678
      2 C         140.2359  138.4955  163.0711 C.3     1  UNL1        0.1023
      3 C         139.6497  138.8286  164.4110 C.ar    1  UNL1        0.0301
      4 C         138.8724  137.6745  164.9713 C.ar    1  UNL1        0.0297
      5 C         138.2026  137.7996  166.3076 C.ar    1  UNL1        0.1401
      6 F         137.4253  136.6455  166.8679 F       1  UNL1       -0.2042
      7 C         138.3100  139.0788  167.0836 C.ar    1  UNL1        0.0327
      8 C         139.0873  140.2329  166.5233 C.ar    1  UNL1        0.0389
      9 C         139.7571  140.1077  165.1870 C.ar    1  UNL1        0.1360
     10 O         140.4773  141.3698  164.8147 O.3     1  UNL1       -0.4743
     11 C         141.2680  141.6644  163.5745 C.3     1  UNL1        0.2215
     12 C         141.5336  140.7696  162.4002 C.3     1  UNL1        0.1061
     13 N         142.3851  137.4702  158.3080 N.pl3   1  UNL1       -0.2769
     14 C         141.1652  138.3425  158.3411 C.3     1  UNL1        0.0950
     15 C         140.7283  138.9721  159.6306 C.3     1  UNL1        0.0375
     16 C         141.5113  138.7296  160.8868 C.3     1  UNL1        0.0613
     17 C         142.7312  137.8574  160.8536 C.3     1  UNL1        0.0375
     18 C         143.1681  137.2277  159.5642 C.3     1  UNL1        0.0950
     19 N         142.6866  134.2271  154.1520 N.pl3   1  UNL1       -0.3278
     20 C         142.9606  135.3499  155.1083 C.ar    1  UNL1        0.2099
     21 N         142.2152  135.6263  156.3802 N.ar    1  UNL1       -0.1804
     22 C         142.8220  136.8406  157.0186 C.ar    1  UNL1        0.2395
     23 N         143.9424  137.3145  156.1411 N.ar    1  UNL1       -0.1349
     24 N         144.0281  136.3932  154.9604 N.ar    1  UNL1       -0.2453
     25 H         141.9599  133.5893  154.3370 H       1  UNL1        0.1451
     26 H         143.2336  134.1281  153.3395 H       1  UNL1        0.1451
     27 H         144.6719  136.4614  154.2187 H       1  UNL1        0.1919
     28 C         142.3691  141.3637  161.3052 C.3     1  UNL1        0.0461
     29 C         141.7962  142.4297  160.4191 C.ar    1  UNL1       -0.0207
     30 C         142.7068  143.4067  159.7361 C.ar    1  UNL1       -0.0034
     31 C         142.1339  144.4727  158.8499 C.ar    1  UNL1        0.0111
     32 C         140.6504  144.5618  158.6467 C.ar    1  UNL1        0.0577
     33 CL        140.0775  145.6279  157.7604 Cl      1  UNL1       -0.0822
     34 C         139.7398  143.5849  159.3296 C.ar    1  UNL1        0.0111
     35 C         140.3127  142.5188  160.2158 C.ar    1  UNL1       -0.0034
@<TRIPOS>BOND
     1    19    20    1
     2    20    21   ar
     3    21    22   ar
     4    22    13    1
     5    13    14    1
     6    14    15    1
     7    15    16    1
     8    16     1    1
     9     1     2    1
    10     2     3    1
    11     3     4   ar
    12     4     5   ar
    13     5     6    1
    14     5     7   ar
    15     7     8   ar
    16     8     9   ar
    17     9    10    1
    18    10    11    1
    19    11    12    1
    20    12    28    1
    21    28    29    1
    22    29    30   ar
    23    30    31   ar
    24    31    32   ar
    25    32    33    1
    26    32    34   ar
    27    34    35   ar
    28    16    17    1
    29    17    18    1
    30    22    23   ar
    31    23    24   ar
    32    24    20   ar
    33    18    13    1
    34    12     1    1
    35    35    29   ar
    36     9     3   ar
    37    19    25    1
    38    19    26    1
    39    24    27    1
@<TRIPOS>MOLECULE
*****
 35 39 0 0 0
SMALL
GASTEIGER

@<TRIPOS>ATOM
      1 N         142.4791  141.4011  163.9463 N.3     1  UNL1       -0.2678
      2 C         141.5529  141.6008  165.1091 C.3     1  UNL1        0.1023
      3 C         141.5727  140.9242  166.4477 C.ar    1  UNL1        0.0301
      4 C         140.4624  141.4171  167.3275 C.ar    1  UNL1        0.0297
      5 C         140.3031  140.8665  168.7136 C.ar    1  UNL1        0.1401
      6 F         139.1927  141.3595  169.5935 F       1  UNL1       -0.2042
      7 C         141.2541  139.8229  169.2199 C.ar    1  UNL1        0.0327
      8 C         142.3645  139.3299  168.3401 C.ar    1  UNL1        0.0389
      9 C         142.5237  139.8805  166.9540 C.ar    1  UNL1        0.1360
     10 O         143.6898  139.2559  166.2468 O.3     1  UNL1       -0.4743
     11 C         144.1929  139.5205  164.8586 C.3     1  UNL1        0.2215
     12 C         143.6540  140.4752  163.8348 C.3     1  UNL1        0.1061
     13 N         141.6195  143.9112  160.3116 N.pl3   1  UNL1       -0.2769
     14 C         140.7961  142.6888  160.5908 C.3     1  UNL1        0.0950
     15 C         141.0827  141.8521  161.8024 C.3     1  UNL1        0.0375
     16 C         142.1926  142.2378  162.7347 C.3     1  UNL1        0.0613
     17 C         143.0160  143.4601  162.4556 C.3     1  UNL1        0.0375
     18 C         142.7295  144.2968  161.2440 C.3     1  UNL1        0.0950
     19 N         139.1595  146.0775  156.1721 N.pl3   1  UNL1       -0.3278
     20 C         140.2023  145.7436  157.1974 C.ar    1  UNL1        0.2099
     21 N         140.0484  144.7676  158.3259 N.ar    1  UNL1       -0.1804
     22 C         141.3330  144.7478  159.1001 C.ar    1  UNL1        0.2395
     23 N         142.2808  145.7117  158.4500 N.ar    1  UNL1       -0.1349
     24 N         141.5820  146.3272  157.2740 N.ar    1  UNL1       -0.2453
     25 H         138.2785  145.6392  156.2052 H       1  UNL1        0.1451
     26 H         139.3560  146.7349  155.4662 H       1  UNL1        0.1451
     27 H         141.9621  146.9966  156.6603 H       1  UNL1        0.1919
     28 C         144.3870  140.5085  162.5266 C.3     1  UNL1        0.0461
     29 C         143.8782  139.7128  161.3613 C.ar    1  UNL1       -0.0207
     30 C         143.8022  140.3399  160.0008 C.ar    1  UNL1       -0.0034
     31 C         143.2934  139.5442  158.8355 C.ar    1  UNL1        0.0111
     32 C         142.8606  138.1213  159.0307 C.ar    1  UNL1        0.0577
     33 CL        142.3517  137.3256  157.8654 Cl      1  UNL1       -0.0822
     34 C         142.9365  137.4942  160.3912 C.ar    1  UNL1        0.0111
     35 C         143.4454  138.2899  161.5565 C.ar    1  UNL1       -0.0034
@<TRIPOS>BOND
     1    19    20    1
     2    20    21   ar
     3    21    22   ar
     4    22    13    1
     5    13    14    1
     6    14    15    1
     7    15    16    1
     8    16     1    1
     9     1     2    1
    10     2     3    1
    11     3     4   ar
    12     4     5   ar
    13     5     6    1
    14     5     7   ar
    15     7     8   ar
    16     8     9   ar
    17     9    10    1
    18    10    11    1
    19    11    12    1
    20    12    28    1
    21    28    29    1
    22    29    30   ar
    23    30    31   ar
    24    31    32   ar
    25    32    33    1
    26    32    34   ar
    27    34    35   ar
    28    16    17    1
    29    17    18    1
    30    22    23   ar
    31    23    24   ar
    32    24    20   ar
    33    18    13    1
    34    12     1    1
    35    35    29   ar
    36     9     3   ar
    37    19    25    1
    38    19    26    1
    39    24    27    1
