@<TRIPOS>MOLECULE
*****
 32 36 0 0 0
SMALL
GASTEIGER

@<TRIPOS>ATOM
      1 C         138.6536  139.4126  164.4571 C.ar    1  UNL1        0.1564
      2 C         139.1320  138.0113  164.2177 C.ar    1  UNL1        0.0385
      3 C         139.4979  137.5702  162.8315 C.ar    1  UNL1        0.0033
      4 C         139.3854  138.5305  161.6847 C.ar    1  UNL1        0.0048
      5 C         138.9071  139.9318  161.9241 C.ar    1  UNL1        0.0567
      6 C         138.5411  140.3729  163.3103 C.ar    1  UNL1        0.1209
      7 N         138.0627  141.7743  163.5496 N.ar    1  UNL1       -0.2108
      8 C         137.9503  142.7346  162.4028 C.ar    1  UNL1        0.2163
      9 N         137.4719  144.1360  162.6422 N.pl3   1  UNL1       -0.3274
     10 N         138.3162  142.2935  161.0166 N.ar    1  UNL1       -0.1813
     11 N         138.3075  143.0117  159.6997 N.ar    1  UNL1       -0.1451
     12 C         138.7806  142.0541  158.6465 C.ar    1  UNL1        0.1769
     13 N         139.0816  140.7442  159.3124 N.ar    1  UNL1       -0.2086
     14 C         138.7946  140.8922  160.7772 C.ar    1  UNL1        0.1695
     15 H         137.2317  144.4255  163.5520 H       1  UNL1        0.1452
     16 H         137.3981  144.7663  161.8895 H       1  UNL1        0.1452
     17 C         137.8037  138.8493  166.8467 C.3     1  UNL1        0.2525
     18 O         138.2876  139.8537  165.8433 O.3     1  UNL1       -0.4699
     19 C         138.9269  142.3539  157.1840 C.3     1  UNL1        0.1408
     20 N         138.9871  143.7765  156.7124 N.3     1  UNL1       -0.2644
     21 C         140.0514  144.6955  157.2348 C.3     1  UNL1        0.0941
     22 C         140.1116  146.1182  156.7631 C.3     1  UNL1        0.1081
     23 N         139.1074  146.6219  155.7691 N.pl3   1  UNL1       -0.3047
     24 C         138.0432  145.7029  155.2468 C.3     1  UNL1        0.1067
     25 C         137.9830  144.2803  155.7184 C.3     1  UNL1        0.0777
     26 C         136.9188  143.3613  155.1960 C.3     1  UNL1        0.0192
     27 C         139.1675  148.0445  155.2975 C.ar    1  UNL1        0.0479
     28 C         139.8666  148.3800  154.0134 C.ar    1  UNL1        0.0145
     29 C         139.9267  149.8027  153.5418 C.ar    1  UNL1        0.0013
     30 C         139.2878  150.8898  154.3542 C.ar    1  UNL1        0.0001
     31 C         138.5888  150.5543  155.6383 C.ar    1  UNL1        0.0013
     32 C         138.5287  149.1316  156.1099 C.ar    1  UNL1        0.0145
@<TRIPOS>BOND
     1    17    18    1
     2    18     1    1
     3     1     2   ar
     4     2     3   ar
     5     3     4   ar
     6     4     5   ar
     7     5     6   ar
     8     6     7   ar
     9     7     8   ar
    10     8     9    1
    11     8    10   ar
    12    10    11   ar
    13    11    12   ar
    14    12    19    1
    15    19    20    1
    16    20    21    1
    17    21    22    1
    18    22    23    1
    19    23    27    1
    20    27    28   ar
    21    28    29   ar
    22    29    30   ar
    23    30    31   ar
    24    31    32   ar
    25    23    24    1
    26    24    25    1
    27    25    26    1
    28    12    13   ar
    29    13    14   ar
    30     6     1   ar
    31    14    10   ar
    32    14     5   ar
    33    25    20    1
    34    32    27   ar
    35     9    15    1
    36     9    16    1
@<TRIPOS>MOLECULE
*****
 32 36 0 0 0
SMALL
GASTEIGER

@<TRIPOS>ATOM
      1 C         143.8926  131.5886  155.3815 C.ar    1  UNL1        0.1564
      2 C         144.8231  131.1120  156.4571 C.ar    1  UNL1        0.0385
      3 C         145.1143  131.9882  157.6393 C.ar    1  UNL1        0.0033
      4 C         144.4751  133.3409  157.7458 C.ar    1  UNL1        0.0048
      5 C         143.5447  133.8175  156.6702 C.ar    1  UNL1        0.0567
      6 C         143.2534  132.9414  155.4880 C.ar    1  UNL1        0.1209
      7 N         142.3229  133.4180  154.4123 N.ar    1  UNL1       -0.2108
      8 C         141.6837  134.7708  154.5188 C.ar    1  UNL1        0.2163
      9 N         140.7532  135.2475  153.4431 N.pl3   1  UNL1       -0.3274
     10 N         141.9750  135.6470  155.7010 N.ar    1  UNL1       -0.1813
     11 N         141.4964  137.0182  156.0762 N.ar    1  UNL1       -0.1451
     12 C         142.1311  137.3890  157.3837 C.ar    1  UNL1        0.1769
     13 N         143.0020  136.2470  157.8166 N.ar    1  UNL1       -0.2086
     14 C         142.9054  135.1704  156.7766 C.ar    1  UNL1        0.1695
     15 H         140.5621  134.6725  152.6672 H       1  UNL1        0.1452
     16 H         140.3337  136.1354  153.5130 H       1  UNL1        0.1452
     17 C         144.5293  129.5856  153.8542 C.3     1  UNL1        0.2525
     18 O         143.6014  130.7124  154.1993 O.3     1  UNL1       -0.4699
     19 C         141.9302  138.6759  158.1277 C.3     1  UNL1        0.1408
     20 N         141.2915  138.6657  159.4849 N.3     1  UNL1       -0.2644
     21 C         139.7969  138.6886  159.6106 C.3     1  UNL1        0.0941
     22 C         139.1582  138.6784  160.9678 C.3     1  UNL1        0.1081
     23 N         140.0140  138.6454  162.1993 N.pl3   1  UNL1       -0.3047
     24 C         141.5086  138.6225  162.0735 C.3     1  UNL1        0.1067
     25 C         142.1473  138.6327  160.7164 C.3     1  UNL1        0.0777
     26 C         143.6418  138.6099  160.5906 C.3     1  UNL1        0.0192
     27 C         139.3753  138.6352  163.5564 C.ar    1  UNL1        0.0479
     28 C         138.7702  139.8912  164.1100 C.ar    1  UNL1        0.0145
     29 C         138.1315  139.8810  165.4672 C.ar    1  UNL1        0.0013
     30 C         138.0979  138.6148  166.2708 C.ar    1  UNL1        0.0001
     31 C         138.7029  137.3589  165.7172 C.ar    1  UNL1        0.0013
     32 C         139.3417  137.3691  164.3600 C.ar    1  UNL1        0.0145
@<TRIPOS>BOND
     1    17    18    1
     2    18     1    1
     3     1     2   ar
     4     2     3   ar
     5     3     4   ar
     6     4     5   ar
     7     5     6   ar
     8     6     7   ar
     9     7     8   ar
    10     8     9    1
    11     8    10   ar
    12    10    11   ar
    13    11    12   ar
    14    12    19    1
    15    19    20    1
    16    20    21    1
    17    21    22    1
    18    22    23    1
    19    23    27    1
    20    27    28   ar
    21    28    29   ar
    22    29    30   ar
    23    30    31   ar
    24    31    32   ar
    25    23    24    1
    26    24    25    1
    27    25    26    1
    28    12    13   ar
    29    13    14   ar
    30     6     1   ar
    31    14    10   ar
    32    14     5   ar
    33    25    20    1
    34    32    27   ar
    35     9    15    1
    36     9    16    1
@<TRIPOS>MOLECULE
*****
 32 36 0 0 0
SMALL
GASTEIGER

@<TRIPOS>ATOM
      1 C         142.4881  137.5766  156.5311 C.ar    1  UNL1        0.1564
      2 C         141.4774  137.8049  155.4465 C.ar    1  UNL1        0.0385
      3 C         140.0976  138.2790  155.7948 C.ar    1  UNL1        0.0033
      4 C         139.7284  138.5247  157.2277 C.ar    1  UNL1        0.0048
      5 C         140.7391  138.2964  158.3123 C.ar    1  UNL1        0.0567
      6 C         142.1189  137.8223  157.9640 C.ar    1  UNL1        0.1209
      7 N         143.1296  137.5940  159.0487 N.ar    1  UNL1       -0.2108
      8 C         142.7605  137.8397  160.4816 C.ar    1  UNL1        0.2163
      9 N         143.7712  137.6114  161.5662 N.pl3   1  UNL1       -0.3274
     10 N         141.3806  138.3138  160.8299 N.ar    1  UNL1       -0.1813
     11 N         140.7326  138.6384  162.1431 N.ar    1  UNL1       -0.1451
     12 C         139.3214  139.0674  161.8701 C.ar    1  UNL1        0.1769
     13 N         139.0973  139.0078  160.3882 N.ar    1  UNL1       -0.2086
     14 C         140.3699  138.5421  159.7453 C.ar    1  UNL1        0.1695
     15 H         144.6768  137.3003  161.3376 H       1  UNL1        0.1452
     16 H         143.5288  137.7727  162.5067 H       1  UNL1        0.1452
     17 C         144.0494  135.8569  155.3671 C.3     1  UNL1        0.2525
     18 O         143.8680  137.1026  156.1827 O.3     1  UNL1       -0.4699
     19 C         138.3115  139.4829  162.8986 C.3     1  UNL1        0.1408
     20 N         138.7663  139.9642  164.2445 N.3     1  UNL1       -0.2644
     21 C         139.0042  141.4269  164.4770 C.3     1  UNL1        0.0941
     22 C         139.4589  141.9081  165.8230 C.3     1  UNL1        0.1081
     23 N         139.6758  140.9266  166.9365 N.pl3   1  UNL1       -0.3047
     24 C         139.4379  139.4640  166.7040 C.3     1  UNL1        0.1067
     25 C         138.9831  138.9828  165.3580 C.3     1  UNL1        0.0777
     26 C         138.7452  137.5202  165.1255 C.3     1  UNL1        0.0192
     27 C         140.1305  141.4079  168.2824 C.ar    1  UNL1        0.0479
     28 C         140.5347  142.8403  168.4696 C.ar    1  UNL1        0.0145
     29 C         140.9894  143.3215  169.8155 C.ar    1  UNL1        0.0013
     30 C         141.0400  142.3704  170.9744 C.ar    1  UNL1        0.0001
     31 C         140.6358  140.9380  170.7872 C.ar    1  UNL1        0.0013
     32 C         140.1811  140.4568  169.4412 C.ar    1  UNL1        0.0145
@<TRIPOS>BOND
     1    17    18    1
     2    18     1    1
     3     1     2   ar
     4     2     3   ar
     5     3     4   ar
     6     4     5   ar
     7     5     6   ar
     8     6     7   ar
     9     7     8   ar
    10     8     9    1
    11     8    10   ar
    12    10    11   ar
    13    11    12   ar
    14    12    19    1
    15    19    20    1
    16    20    21    1
    17    21    22    1
    18    22    23    1
    19    23    27    1
    20    27    28   ar
    21    28    29   ar
    22    29    30   ar
    23    30    31   ar
    24    31    32   ar
    25    23    24    1
    26    24    25    1
    27    25    26    1
    28    12    13   ar
    29    13    14   ar
    30     6     1   ar
    31    14    10   ar
    32    14     5   ar
    33    25    20    1
    34    32    27   ar
    35     9    15    1
    36     9    16    1
@<TRIPOS>MOLECULE
*****
 32 36 0 0 0
SMALL
GASTEIGER

@<TRIPOS>ATOM
      1 C         137.2175  141.0030  156.0900 C.ar    1  UNL1        0.1564
      2 C         137.5995  142.0287  155.0644 C.ar    1  UNL1        0.0385
      3 C         138.3520  143.2586  155.4778 C.ar    1  UNL1        0.0033
      4 C         138.7226  143.4629  156.9168 C.ar    1  UNL1        0.0048
      5 C         138.3406  142.4372  157.9425 C.ar    1  UNL1        0.0567
      6 C         137.5881  141.2072  157.5290 C.ar    1  UNL1        0.1209
      7 N         137.2061  140.1815  158.5548 N.ar    1  UNL1       -0.2108
      8 C         137.5767  140.3858  159.9938 C.ar    1  UNL1        0.2163
      9 N         137.1947  139.3600  161.0196 N.pl3   1  UNL1       -0.3274
     10 N         138.3292  141.6157  160.4072 N.ar    1  UNL1       -0.1813
     11 N         138.8278  142.0863  161.7414 N.ar    1  UNL1       -0.1451
     12 C         139.5180  143.4028  161.5402 C.ar    1  UNL1        0.1769
     13 N         139.4459  143.7459  160.0818 N.ar    1  UNL1       -0.2086
     14 C         138.7112  142.6414  159.3816 C.ar    1  UNL1        0.1695
     15 H         136.7008  138.5528  160.7482 H       1  UNL1        0.1452
     16 H         137.4379  139.4941  161.9641 H       1  UNL1        0.1452
     17 C         135.6180  139.7926  154.4388 C.3     1  UNL1        0.2525
     18 O         136.4650  139.7730  155.6766 O.3     1  UNL1       -0.4699
     19 C         140.1664  144.2309  162.6098 C.3     1  UNL1        0.1408
     20 N         140.6284  143.5844  163.8820 N.3     1  UNL1       -0.2644
     21 C         141.8897  142.7724  163.8957 C.3     1  UNL1        0.0941
     22 C         142.3517  142.1259  165.1679 C.3     1  UNL1        0.1081
     23 N         141.5525  142.2915  166.4265 N.pl3   1  UNL1       -0.3047
     24 C         140.2914  143.1034  166.4128 C.3     1  UNL1        0.1067
     25 C         139.8293  143.7499  165.1406 C.3     1  UNL1        0.0777
     26 C         138.5682  144.5618  165.1269 C.3     1  UNL1        0.0192
     27 C         142.0145  141.6450  167.6988 C.ar    1  UNL1        0.0479
     28 C         143.0109  142.3434  168.5760 C.ar    1  UNL1        0.0145
     29 C         143.4730  141.6969  169.8483 C.ar    1  UNL1        0.0013
     30 C         142.9386  140.3521  170.2433 C.ar    1  UNL1        0.0001
     31 C         141.9422  139.6538  169.3660 C.ar    1  UNL1        0.0013
     32 C         141.4802  140.3002  168.0938 C.ar    1  UNL1        0.0145
@<TRIPOS>BOND
     1    17    18    1
     2    18     1    1
     3     1     2   ar
     4     2     3   ar
     5     3     4   ar
     6     4     5   ar
     7     5     6   ar
     8     6     7   ar
     9     7     8   ar
    10     8     9    1
    11     8    10   ar
    12    10    11   ar
    13    11    12   ar
    14    12    19    1
    15    19    20    1
    16    20    21    1
    17    21    22    1
    18    22    23    1
    19    23    27    1
    20    27    28   ar
    21    28    29   ar
    22    29    30   ar
    23    30    31   ar
    24    31    32   ar
    25    23    24    1
    26    24    25    1
    27    25    26    1
    28    12    13   ar
    29    13    14   ar
    30     6     1   ar
    31    14    10   ar
    32    14     5   ar
    33    25    20    1
    34    32    27   ar
    35     9    15    1
    36     9    16    1
@<TRIPOS>MOLECULE
*****
 32 36 0 0 0
SMALL
GASTEIGER

@<TRIPOS>ATOM
      1 C         139.5719  138.7380  164.5980 C.ar    1  UNL1        0.1564
      2 C         140.8964  138.3780  165.2031 C.ar    1  UNL1        0.0385
      3 C         142.0594  138.0427  164.3171 C.ar    1  UNL1        0.0033
      4 C         141.8979  138.0673  162.8260 C.ar    1  UNL1        0.0048
      5 C         140.5734  138.4272  162.2210 C.ar    1  UNL1        0.0567
      6 C         139.4104  138.7625  163.1070 C.ar    1  UNL1        0.1209
      7 N         138.0858  139.1224  162.5018 N.ar    1  UNL1       -0.2108
      8 C         137.9243  139.1470  161.0108 C.ar    1  UNL1        0.2163
      9 N         136.5998  139.5069  160.4057 N.pl3   1  UNL1       -0.3274
     10 N         139.0873  138.8116  160.1248 N.ar    1  UNL1       -0.1813
     11 N         139.2279  138.7522  158.6326 N.ar    1  UNL1       -0.1451
     12 C         140.6393  138.3556  158.3155 C.ar    1  UNL1        0.1769
     13 N         141.3710  138.1699  159.6117 N.ar    1  UNL1       -0.2086
     14 C         140.4118  138.4517  160.7299 C.ar    1  UNL1        0.1695
     15 H         135.8365  139.7270  160.9872 H       1  UNL1        0.1452
     16 H         136.4938  139.5230  159.4270 H       1  UNL1        0.1452
     17 C         138.6185  139.2632  166.9571 C.3     1  UNL1        0.2525
     18 O         138.4089  139.0733  165.4840 O.3     1  UNL1       -0.4699
     19 C         141.2176  138.1761  156.9430 C.3     1  UNL1        0.1408
     20 N         141.7493  136.8381  156.5223 N.3     1  UNL1       -0.2644
     21 C         143.0112  136.3062  157.1346 C.3     1  UNL1        0.0941
     22 C         143.5429  134.9682  156.7139 C.3     1  UNL1        0.1081
     23 N         142.8128  134.1621  155.6808 N.pl3   1  UNL1       -0.3047
     24 C         141.5510  134.6940  155.0686 C.3     1  UNL1        0.1067
     25 C         141.0192  136.0320  155.4893 C.3     1  UNL1        0.0777
     26 C         139.7574  136.5638  154.8771 C.3     1  UNL1        0.0192
     27 C         143.3445  132.8241  155.2601 C.ar    1  UNL1        0.0479
     28 C         144.3181  132.0944  156.1374 C.ar    1  UNL1        0.0145
     29 C         144.8499  130.7564  155.7167 C.ar    1  UNL1        0.0013
     30 C         144.4080  130.1481  154.4186 C.ar    1  UNL1        0.0001
     31 C         143.4344  130.8778  153.5414 C.ar    1  UNL1        0.0013
     32 C         142.9026  132.2158  153.9622 C.ar    1  UNL1        0.0145
@<TRIPOS>BOND
     1    17    18    1
     2    18     1    1
     3     1     2   ar
     4     2     3   ar
     5     3     4   ar
     6     4     5   ar
     7     5     6   ar
     8     6     7   ar
     9     7     8   ar
    10     8     9    1
    11     8    10   ar
    12    10    11   ar
    13    11    12   ar
    14    12    19    1
    15    19    20    1
    16    20    21    1
    17    21    22    1
    18    22    23    1
    19    23    27    1
    20    27    28   ar
    21    28    29   ar
    22    29    30   ar
    23    30    31   ar
    24    31    32   ar
    25    23    24    1
    26    24    25    1
    27    25    26    1
    28    12    13   ar
    29    13    14   ar
    30     6     1   ar
    31    14    10   ar
    32    14     5   ar
    33    25    20    1
    34    32    27   ar
    35     9    15    1
    36     9    16    1
@<TRIPOS>MOLECULE
*****
 32 36 0 0 0
SMALL
GASTEIGER

@<TRIPOS>ATOM
      1 C         138.4464  139.6413  169.3620 C.ar    1  UNL1        0.1564
      2 C         137.7225  138.9958  168.2178 C.ar    1  UNL1        0.0385
      3 C         138.2489  139.1394  166.8205 C.ar    1  UNL1        0.0033
      4 C         139.4991  139.9286  166.5675 C.ar    1  UNL1        0.0048
      5 C         140.2229  140.5742  167.7117 C.ar    1  UNL1        0.0567
      6 C         139.6966  140.4305  169.1089 C.ar    1  UNL1        0.1209
      7 N         140.4205  141.0761  170.2532 N.ar    1  UNL1       -0.2108
      8 C         141.6707  141.8653  170.0001 C.ar    1  UNL1        0.2163
      9 N         142.3947  142.5109  171.1443 N.pl3   1  UNL1       -0.3274
     10 N         142.1971  142.0090  168.6029 N.ar    1  UNL1       -0.1813
     11 N         143.3963  142.7207  168.0503 N.ar    1  UNL1       -0.1451
     12 C         143.4136  142.5150  166.5646 C.ar    1  UNL1        0.1769
     13 N         142.2250  141.6761  166.1989 N.ar    1  UNL1       -0.2086
     14 C         141.4732  141.3634  167.4587 C.ar    1  UNL1        0.1695
     15 H         142.0492  142.4167  172.0614 H       1  UNL1        0.1452
     16 H         143.2152  143.0289  170.9783 H       1  UNL1        0.1452
     17 C         136.5603  138.9084  170.9916 C.3     1  UNL1        0.2525
     18 O         137.9200  139.4977  170.7592 O.3     1  UNL1       -0.4699
     19 C         144.4393  143.0536  165.6117 C.3     1  UNL1        0.1408
     20 N         144.3758  142.6907  164.1576 N.3     1  UNL1       -0.2644
     21 C         144.7748  141.3159  163.7096 C.3     1  UNL1        0.0941
     22 C         144.7114  140.9530  162.2555 C.3     1  UNL1        0.1081
     23 N         144.2489  141.9651  161.2495 N.pl3   1  UNL1       -0.3047
     24 C         143.8500  143.3398  161.6976 C.3     1  UNL1        0.1067
     25 C         143.9134  143.7027  163.1516 C.3     1  UNL1        0.0777
     26 C         143.5145  145.0774  163.5997 C.3     1  UNL1        0.0192
     27 C         144.1855  141.6022  159.7954 C.ar    1  UNL1        0.0479
     28 C         144.7748  142.5212  158.7667 C.ar    1  UNL1        0.0145
     29 C         144.7114  142.1584  157.3126 C.ar    1  UNL1        0.0013
     30 C         144.0585  140.8766  156.8873 C.ar    1  UNL1        0.0001
     31 C         143.4692  139.9577  157.9160 C.ar    1  UNL1        0.0013
     32 C         143.5327  140.3205  159.3701 C.ar    1  UNL1        0.0145
@<TRIPOS>BOND
     1    17    18    1
     2    18     1    1
     3     1     2   ar
     4     2     3   ar
     5     3     4   ar
     6     4     5   ar
     7     5     6   ar
     8     6     7   ar
     9     7     8   ar
    10     8     9    1
    11     8    10   ar
    12    10    11   ar
    13    11    12   ar
    14    12    19    1
    15    19    20    1
    16    20    21    1
    17    21    22    1
    18    22    23    1
    19    23    27    1
    20    27    28   ar
    21    28    29   ar
    22    29    30   ar
    23    30    31   ar
    24    31    32   ar
    25    23    24    1
    26    24    25    1
    27    25    26    1
    28    12    13   ar
    29    13    14   ar
    30     6     1   ar
    31    14    10   ar
    32    14     5   ar
    33    25    20    1
    34    32    27   ar
    35     9    15    1
    36     9    16    1
@<TRIPOS>MOLECULE
*****
 32 36 0 0 0
SMALL
GASTEIGER

@<TRIPOS>ATOM
      1 C         142.8567  131.9311  153.5748 C.ar    1  UNL1        0.1564
      2 C         142.1029  132.2793  152.3257 C.ar    1  UNL1        0.0385
      3 C         141.4452  133.6211  152.1959 C.ar    1  UNL1        0.0033
      4 C         141.5414  134.6149  153.3154 C.ar    1  UNL1        0.0048
      5 C         142.2952  134.2667  154.5645 C.ar    1  UNL1        0.0567
      6 C         142.9529  132.9249  154.6943 C.ar    1  UNL1        0.1209
      7 N         143.7067  132.5768  155.9435 N.ar    1  UNL1       -0.2108
      8 C         143.8029  133.5705  157.0630 C.ar    1  UNL1        0.2163
      9 N         144.5567  133.2224  158.3123 N.pl3   1  UNL1       -0.3274
     10 N         143.1452  134.9124  156.9332 N.ar    1  UNL1       -0.1813
     11 N         143.0698  136.0873  157.8627 N.ar    1  UNL1       -0.1451
     12 C         142.2694  137.1615  157.1880 C.ar    1  UNL1        0.1769
     13 N         141.8501  136.6505  155.8414 N.ar    1  UNL1       -0.2086
     14 C         142.3914  135.2605  155.6841 C.ar    1  UNL1        0.1695
     15 H         144.9884  132.3417  158.3974 H       1  UNL1        0.1452
     16 H         144.6198  133.8746  159.0470 H       1  UNL1        0.1452
     17 C         144.0881  129.9150  152.4937 C.3     1  UNL1        0.2525
     18 O         143.5144  130.5893  153.7046 O.3     1  UNL1       -0.4699
     19 C         141.9451  138.5100  157.7594 C.3     1  UNL1        0.1408
     20 N         141.3118  138.6176  159.1149 N.3     1  UNL1       -0.2644
     21 C         139.8314  138.4305  159.2680 C.3     1  UNL1        0.0941
     22 C         139.1981  138.5381  160.6234 C.3     1  UNL1        0.1081
     23 N         140.0452  138.8328  161.8258 N.pl3   1  UNL1       -0.3047
     24 C         141.5255  139.0199  161.6727 C.3     1  UNL1        0.1067
     25 C         142.1589  138.9123  160.3172 C.3     1  UNL1        0.0777
     26 C         143.6392  139.0994  160.1640 C.3     1  UNL1        0.0192
     27 C         139.4119  138.9404  163.1813 C.ar    1  UNL1        0.0479
     28 C         139.3556  137.7409  164.0802 C.ar    1  UNL1        0.0145
     29 C         138.7223  137.8485  165.4357 C.ar    1  UNL1        0.0013
     30 C         138.1452  139.1557  165.8923 C.ar    1  UNL1        0.0001
     31 C         138.2015  140.3551  164.9934 C.ar    1  UNL1        0.0013
     32 C         138.8348  140.2475  163.6379 C.ar    1  UNL1        0.0145
@<TRIPOS>BOND
     1    17    18    1
     2    18     1    1
     3     1     2   ar
     4     2     3   ar
     5     3     4   ar
     6     4     5   ar
     7     5     6   ar
     8     6     7   ar
     9     7     8   ar
    10     8     9    1
    11     8    10   ar
    12    10    11   ar
    13    11    12   ar
    14    12    19    1
    15    19    20    1
    16    20    21    1
    17    21    22    1
    18    22    23    1
    19    23    27    1
    20    27    28   ar
    21    28    29   ar
    22    29    30   ar
    23    30    31   ar
    24    31    32   ar
    25    23    24    1
    26    24    25    1
    27    25    26    1
    28    12    13   ar
    29    13    14   ar
    30     6     1   ar
    31    14    10   ar
    32    14     5   ar
    33    25    20    1
    34    32    27   ar
    35     9    15    1
    36     9    16    1
@<TRIPOS>MOLECULE
*****
 32 36 0 0 0
SMALL
GASTEIGER

@<TRIPOS>ATOM
      1 C         139.2676  139.7826  167.6900 C.ar    1  UNL1        0.1564
      2 C         138.1935  139.1797  166.8340 C.ar    1  UNL1        0.0385
      3 C         138.1914  139.4197  165.3533 C.ar    1  UNL1        0.0033
      4 C         139.2633  140.2627  164.7286 C.ar    1  UNL1        0.0048
      5 C         140.3374  140.8656  165.5846 C.ar    1  UNL1        0.0567
      6 C         140.3395  140.6255  167.0653 C.ar    1  UNL1        0.1209
      7 N         141.4137  141.2285  167.9213 N.ar    1  UNL1       -0.2108
      8 C         142.4857  142.0715  167.2966 C.ar    1  UNL1        0.2163
      9 N         143.5598  142.6744  168.1526 N.pl3   1  UNL1       -0.3274
     10 N         142.4835  142.3115  165.8160 N.ar    1  UNL1       -0.1813
     11 N         143.4029  143.0925  164.9245 N.ar    1  UNL1       -0.1451
     12 C         142.8970  142.9722  163.5175 C.ar    1  UNL1        0.1769
     13 N         141.6649  142.1169  163.5394 N.ar    1  UNL1       -0.2086
     14 C         141.4095  141.7086  164.9600 C.ar    1  UNL1        0.1695
     15 H         143.5612  142.5169  169.1245 H       1  UNL1        0.1452
     16 H         144.2634  143.2277  167.7426 H       1  UNL1        0.1452
     17 C         138.9617  140.6679  170.1133 C.3     1  UNL1        0.2525
     18 O         139.2697  139.5425  169.1706 O.3     1  UNL1       -0.4699
     19 C         143.5147  143.5975  162.3019 C.3     1  UNL1        0.1408
     20 N         142.6572  143.9535  161.1238 N.3     1  UNL1       -0.2644
     21 C         142.9521  143.3642  159.7762 C.3     1  UNL1        0.0941
     22 C         142.0946  143.7201  158.5981 C.3     1  UNL1        0.1081
     23 N         140.9422  144.6654  158.7675 N.pl3   1  UNL1       -0.3047
     24 C         140.6474  145.2546  160.1150 C.3     1  UNL1        0.1067
     25 C         141.5049  144.8987  161.2932 C.3     1  UNL1        0.0777
     26 C         141.2101  145.4879  162.6407 C.3     1  UNL1        0.0192
     27 C         140.0847  145.0213  157.5894 C.ar    1  UNL1        0.0479
     28 C         139.3073  143.9538  156.8778 C.ar    1  UNL1        0.0145
     29 C         138.4498  144.3098  155.6997 C.ar    1  UNL1        0.0013
     30 C         138.3697  145.7332  155.2331 C.ar    1  UNL1        0.0001
     31 C         139.1470  146.8006  155.9447 C.ar    1  UNL1        0.0013
     32 C         140.0045  146.4446  157.1228 C.ar    1  UNL1        0.0145
@<TRIPOS>BOND
     1    17    18    1
     2    18     1    1
     3     1     2   ar
     4     2     3   ar
     5     3     4   ar
     6     4     5   ar
     7     5     6   ar
     8     6     7   ar
     9     7     8   ar
    10     8     9    1
    11     8    10   ar
    12    10    11   ar
    13    11    12   ar
    14    12    19    1
    15    19    20    1
    16    20    21    1
    17    21    22    1
    18    22    23    1
    19    23    27    1
    20    27    28   ar
    21    28    29   ar
    22    29    30   ar
    23    30    31   ar
    24    31    32   ar
    25    23    24    1
    26    24    25    1
    27    25    26    1
    28    12    13   ar
    29    13    14   ar
    30     6     1   ar
    31    14    10   ar
    32    14     5   ar
    33    25    20    1
    34    32    27   ar
    35     9    15    1
    36     9    16    1
@<TRIPOS>MOLECULE
*****
 32 36 0 0 0
SMALL
GASTEIGER

@<TRIPOS>ATOM
      1 C         142.2718  129.4783  155.5430 C.ar    1  UNL1        0.1564
      2 C         141.0225  129.3644  154.7207 C.ar    1  UNL1        0.0385
      3 C         140.2307  130.5934  154.3852 C.ar    1  UNL1        0.0033
      4 C         140.6883  131.9364  154.8721 C.ar    1  UNL1        0.0048
      5 C         141.9376  132.0503  155.6944 C.ar    1  UNL1        0.0567
      6 C         142.7293  130.8212  156.0298 C.ar    1  UNL1        0.1209
      7 N         143.9787  130.9352  156.8522 N.ar    1  UNL1       -0.2108
      8 C         144.4362  132.2782  157.3390 C.ar    1  UNL1        0.2163
      9 N         145.6856  132.3921  158.1614 N.pl3   1  UNL1       -0.3274
     10 N         143.6445  133.5072  157.0035 N.ar    1  UNL1       -0.1813
     11 N         143.8470  134.9547  157.3408 N.ar    1  UNL1       -0.1451
     12 C         142.7229  135.7354  156.7269 C.ar    1  UNL1        0.1769
     13 N         141.8256  134.7703  156.0102 N.ar    1  UNL1       -0.2086
     14 C         142.3952  133.3933  156.1812 C.ar    1  UNL1        0.1695
     15 H         146.2053  131.5855  158.3815 H       1  UNL1        0.1452
     16 H         145.9859  133.2736  158.4809 H       1  UNL1        0.1452
     17 C         142.9414  127.6261  157.2373 C.3     1  UNL1        0.2525
     18 O         143.0636  128.2492  155.8784 O.3     1  UNL1       -0.4699
     19 C         142.5299  137.2204  156.8143 C.3     1  UNL1        0.1408
     20 N         142.9557  137.9607  158.0474 N.3     1  UNL1       -0.2644
     21 C         142.9505  137.2675  159.3777 C.3     1  UNL1        0.0941
     22 C         143.3763  138.0078  160.6108 C.3     1  UNL1        0.1081
     23 N         143.8072  139.4414  160.5137 N.pl3   1  UNL1       -0.3047
     24 C         143.8124  140.1345  159.1835 C.3     1  UNL1        0.1067
     25 C         143.3867  139.3941  157.9504 C.3     1  UNL1        0.0777
     26 C         143.3918  140.0873  156.6202 C.3     1  UNL1        0.0192
     27 C         144.2330  140.1817  161.7469 C.ar    1  UNL1        0.0479
     28 C         144.1660  139.5092  163.0860 C.ar    1  UNL1        0.0145
     29 C         144.5918  140.2495  164.3192 C.ar    1  UNL1        0.0013
     30 C         145.0846  141.6623  164.2131 C.ar    1  UNL1        0.0001
     31 C         145.1516  142.3347  162.8740 C.ar    1  UNL1        0.0013
     32 C         144.7258  141.5944  161.6409 C.ar    1  UNL1        0.0145
@<TRIPOS>BOND
     1    17    18    1
     2    18     1    1
     3     1     2   ar
     4     2     3   ar
     5     3     4   ar
     6     4     5   ar
     7     5     6   ar
     8     6     7   ar
     9     7     8   ar
    10     8     9    1
    11     8    10   ar
    12    10    11   ar
    13    11    12   ar
    14    12    19    1
    15    19    20    1
    16    20    21    1
    17    21    22    1
    18    22    23    1
    19    23    27    1
    20    27    28   ar
    21    28    29   ar
    22    29    30   ar
    23    30    31   ar
    24    31    32   ar
    25    23    24    1
    26    24    25    1
    27    25    26    1
    28    12    13   ar
    29    13    14   ar
    30     6     1   ar
    31    14    10   ar
    32    14     5   ar
    33    25    20    1
    34    32    27   ar
    35     9    15    1
    36     9    16    1
