@<TRIPOS>MOLECULE
*****
 33 35 0 0 0
SMALL
GASTEIGER

@<TRIPOS>ATOM
      1 C         138.3617  142.0520  160.3377 C.3     1  UNL1        0.0972
      2 N         138.8393  141.1842  161.4641 N.3     1  UNL1       -0.1408
      3 C         139.8394  140.0714  161.3569 C.3     1  UNL1        0.1205
      4 C         140.0188  139.4762  162.7220 C.3     1  UNL1        0.1361
      5 N         139.1297  140.2212  163.6730 N.pl3   1  UNL1       -0.1792
      6 S         138.4007  141.2768  162.8956 S.O2    1  UNL1        0.1161
      7 O         137.7826  141.6045  164.2225 O.2     1  UNL1       -0.1377
      8 O         137.5425  142.4009  162.3955 O.2     1  UNL1       -0.1377
      9 C         138.9934  139.9571  165.1432 C.ar    1  UNL1        0.0742
     10 C         139.8047  140.7485  166.1259 C.ar    1  UNL1        0.0369
     11 C         139.6684  140.4844  167.5961 C.ar    1  UNL1        0.1016
     12 N         138.7208  139.4287  168.0837 N.ar    1  UNL1       -0.2295
     13 C         137.9096  138.6373  167.1011 C.ar    1  UNL1        0.1267
     14 N         136.9620  137.5817  167.5889 N.pl3   1  UNL1       -0.3426
     15 C         138.0458  138.9015  165.6309 C.ar    1  UNL1        0.0500
     16 H         136.8725  137.4083  168.5538 H       1  UNL1        0.1437
     17 H         136.4295  137.0622  166.9440 H       1  UNL1        0.1437
     18 C         139.2263  142.2553  159.1290 C.3     1  UNL1        0.0193
     19 C         139.5876  143.6434  158.6901 C.3     1  UNL1        0.0053
     20 C         140.9588  144.1847  158.9678 C.3     1  UNL1        0.0474
     21 C         141.2706  144.7866  160.3059 C.3     1  UNL1        0.2054
     22 O         142.6477  144.6538  160.8855 O.3     1  UNL1       -0.4755
     23 C         143.2259  142.6616  164.8788 C.ar    1  UNL1        0.0226
     24 C         142.2849  142.0672  163.8734 C.ar    1  UNL1        0.0048
     25 C         142.0921  142.7312  162.5423 C.ar    1  UNL1        0.0369
     26 C         142.8404  143.9898  162.2166 C.ar    1  UNL1        0.1386
     27 C         143.7815  144.5842  163.2221 C.ar    1  UNL1        0.0369
     28 C         143.9742  143.9201  164.5532 C.ar    1  UNL1        0.0048
     29 N         143.2670  142.7918  167.4733 N.2     1  UNL1       -0.0814
     30 C         143.4186  141.9976  166.2099 C.2     1  UNL1        0.1400
     31 O         143.4597  142.1278  168.8044 O.2     1  UNL1       -0.3773
     32 C         141.4443  143.1779  170.0635 C.3     1  UNL1        0.0543
     33 C         142.8808  142.7466  170.0421 C.3     1  UNL1        0.2386
@<TRIPOS>BOND
     1    32    33    1
     2    33    31    1
     3    31    29    1
     4    29    30    2
     5    30    23    1
     6    23    24   ar
     7    24    25   ar
     8    25    26   ar
     9    26    22    1
    10    22    21    1
    11    21    20    1
    12    20    19    1
    13    19    18    1
    14    18     1    1
    15     1     2    1
    16     2     3    1
    17     3     4    1
    18     4     5    1
    19     5     9    1
    20     9    10   ar
    21    10    11   ar
    22    11    12   ar
    23    12    13   ar
    24    13    14    1
    25    13    15   ar
    26     5     6    1
    27     6     7    2
    28     6     8    2
    29    26    27   ar
    30    27    28   ar
    31    28    23   ar
    32     6     2    1
    33    15     9   ar
    34    14    16    1
    35    14    17    1
@<TRIPOS>MOLECULE
*****
 33 35 0 0 0
SMALL
GASTEIGER

@<TRIPOS>ATOM
      1 C         144.0309  138.7617  163.6058 C.3     1  UNL1        0.0972
      2 N         143.7024  139.8843  164.5448 N.3     1  UNL1       -0.1408
      3 C         144.0427  141.3311  164.3425 C.3     1  UNL1        0.1205
      4 C         143.5265  142.0983  165.5237 C.3     1  UNL1        0.1361
      5 N         142.8673  141.1255  166.4560 N.pl3   1  UNL1       -0.1792
      6 S         142.9760  139.7573  165.8510 S.O2    1  UNL1        0.1161
      7 O         142.2401  139.3252  167.0847 O.2     1  UNL1       -0.1377
      8 O         142.9309  138.2986  165.5039 O.2     1  UNL1       -0.1377
      9 C         142.2140  141.4620  167.7637 C.ar    1  UNL1        0.0742
     10 C         141.0946  142.4594  167.8082 C.ar    1  UNL1        0.0369
     11 C         140.4413  142.7959  169.1159 C.ar    1  UNL1        0.1016
     12 N         140.9075  142.1348  170.3790 N.ar    1  UNL1       -0.2295
     13 C         142.0269  141.1374  170.3346 C.ar    1  UNL1        0.1267
     14 N         142.4931  140.4763  171.5979 N.pl3   1  UNL1       -0.3426
     15 C         142.6802  140.8009  169.0269 C.ar    1  UNL1        0.0500
     16 H         142.0643  140.6971  172.4561 H       1  UNL1        0.1437
     17 H         143.2278  139.8216  171.5687 H       1  UNL1        0.1437
     18 C         143.9054  138.9618  162.1245 C.3     1  UNL1        0.0193
     19 C         142.7094  138.4271  161.3941 C.3     1  UNL1        0.0053
     20 C         141.3959  138.2895  162.1054 C.3     1  UNL1        0.0474
     21 C         140.1149  138.3083  161.3252 C.3     1  UNL1        0.2054
     22 O         138.8081  138.5087  162.0337 O.3     1  UNL1       -0.4755
     23 C         138.7521  139.3722  166.4498 C.ar    1  UNL1        0.0226
     24 C         138.6302  137.9596  165.9602 C.ar    1  UNL1        0.0048
     25 C         138.6489  137.6718  164.4881 C.ar    1  UNL1        0.0369
     26 C         138.7894  138.7965  163.5057 C.ar    1  UNL1        0.1386
     27 C         138.9113  140.2091  163.9953 C.ar    1  UNL1        0.0369
     28 C         138.8926  140.4969  165.4674 C.ar    1  UNL1        0.0048
     29 N         137.6910  139.0287  168.7963 N.2     1  UNL1       -0.0814
     30 C         138.7334  139.6600  167.9218 C.2     1  UNL1        0.1400
     31 O         137.6723  139.3165  170.2683 O.2     1  UNL1       -0.3773
     32 C         136.2153  137.8343  171.8272 C.3     1  UNL1        0.0543
     33 C         136.4142  139.1064  171.0577 C.3     1  UNL1        0.2386
@<TRIPOS>BOND
     1    32    33    1
     2    33    31    1
     3    31    29    1
     4    29    30    2
     5    30    23    1
     6    23    24   ar
     7    24    25   ar
     8    25    26   ar
     9    26    22    1
    10    22    21    1
    11    21    20    1
    12    20    19    1
    13    19    18    1
    14    18     1    1
    15     1     2    1
    16     2     3    1
    17     3     4    1
    18     4     5    1
    19     5     9    1
    20     9    10   ar
    21    10    11   ar
    22    11    12   ar
    23    12    13   ar
    24    13    14    1
    25    13    15   ar
    26     5     6    1
    27     6     7    2
    28     6     8    2
    29    26    27   ar
    30    27    28   ar
    31    28    23   ar
    32     6     2    1
    33    15     9   ar
    34    14    16    1
    35    14    17    1
@<TRIPOS>MOLECULE
*****
 33 35 0 0 0
SMALL
GASTEIGER

@<TRIPOS>ATOM
      1 C         142.7458  139.7471  165.7801 C.3     1  UNL1        0.0972
      2 N         142.1626  138.9933  164.6218 N.3     1  UNL1       -0.1408
      3 C         141.5350  137.6322  164.6818 C.3     1  UNL1        0.1205
      4 C         141.0892  137.2659  163.2972 C.3     1  UNL1        0.1361
      5 N         141.4413  138.4005  162.3815 N.pl3   1  UNL1       -0.1792
      6 S         142.1047  139.4681  163.2002 S.O2    1  UNL1        0.1161
      7 O         142.1892  140.1981  161.8924 O.2     1  UNL1       -0.1377
      8 O         142.7858  140.6883  163.7455 O.2     1  UNL1       -0.1377
      9 C         141.1765  138.4576  160.9062 C.ar    1  UNL1        0.0742
     10 C         139.8131  138.8286  160.4027 C.ar    1  UNL1        0.0369
     11 C         139.5483  138.8857  158.9274 C.ar    1  UNL1        0.1016
     12 N         140.6470  138.5718  157.9556 N.ar    1  UNL1       -0.2295
     13 C         142.0103  138.2008  158.4590 C.ar    1  UNL1        0.1267
     14 N         143.1090  137.8869  157.4871 N.pl3   1  UNL1       -0.3426
     15 C         142.2751  138.1437  159.9344 C.ar    1  UNL1        0.0500
     16 H         142.9352  137.9244  156.5188 H       1  UNL1        0.1437
     17 H         144.0038  137.6434  157.8175 H       1  UNL1        0.1437
     18 C         142.9299  139.0644  167.1030 C.3     1  UNL1        0.0193
     19 C         142.8588  139.8589  168.3733 C.3     1  UNL1        0.0053
     20 C         142.0277  139.3660  169.5207 C.3     1  UNL1        0.0474
     21 C         140.6543  139.9254  169.7467 C.3     1  UNL1        0.2054
     22 O         139.5656  139.6672  168.7477 O.3     1  UNL1       -0.4755
     23 C         139.4412  142.0005  164.9018 C.ar    1  UNL1        0.0226
     24 C         138.8448  140.6256  164.9646 C.ar    1  UNL1        0.0048
     25 C         138.8863  139.8479  166.2465 C.ar    1  UNL1        0.0369
     26 C         139.5242  140.4450  167.4657 C.ar    1  UNL1        0.1386
     27 C         140.1205  141.8199  167.4030 C.ar    1  UNL1        0.0369
     28 C         140.0791  142.5976  166.1211 C.ar    1  UNL1        0.0048
     29 N         138.6011  144.0452  163.5368 N.2     1  UNL1       -0.0814
     30 C         139.3997  142.7782  163.6199 C.2     1  UNL1        0.1400
     31 O         138.5597  144.8229  162.2549 O.2     1  UNL1       -0.3773
     32 C         140.6439  145.4556  160.8386 C.3     1  UNL1        0.0543
     33 C         139.6630  145.7841  161.9248 C.3     1  UNL1        0.2386
@<TRIPOS>BOND
     1    32    33    1
     2    33    31    1
     3    31    29    1
     4    29    30    2
     5    30    23    1
     6    23    24   ar
     7    24    25   ar
     8    25    26   ar
     9    26    22    1
    10    22    21    1
    11    21    20    1
    12    20    19    1
    13    19    18    1
    14    18     1    1
    15     1     2    1
    16     2     3    1
    17     3     4    1
    18     4     5    1
    19     5     9    1
    20     9    10   ar
    21    10    11   ar
    22    11    12   ar
    23    12    13   ar
    24    13    14    1
    25    13    15   ar
    26     5     6    1
    27     6     7    2
    28     6     8    2
    29    26    27   ar
    30    27    28   ar
    31    28    23   ar
    32     6     2    1
    33    15     9   ar
    34    14    16    1
    35    14    17    1
@<TRIPOS>MOLECULE
*****
 33 35 0 0 0
SMALL
GASTEIGER

@<TRIPOS>ATOM
      1 C         143.9790  139.3022  164.3318 C.3     1  UNL1        0.0972
      2 N         143.5808  140.7206  164.0497 N.3     1  UNL1       -0.1408
      3 C         144.2405  141.9484  164.6039 C.3     1  UNL1        0.1205
      4 C         143.5203  143.1469  164.0607 C.3     1  UNL1        0.1361
      5 N         142.4155  142.6597  163.1707 N.pl3   1  UNL1       -0.1792
      6 S         142.4529  141.1602  163.1639 S.O2    1  UNL1        0.1161
      7 O         141.2816  141.2920  162.2361 O.2     1  UNL1       -0.1377
      8 O         142.2454  139.6881  162.9632 O.2     1  UNL1       -0.1377
      9 C         141.4439  143.5208  162.4193 C.ar    1  UNL1        0.0742
     10 C         141.8930  144.2698  161.1997 C.ar    1  UNL1        0.0369
     11 C         140.9214  145.1309  160.4484 C.ar    1  UNL1        0.1016
     12 N         139.5008  145.2430  160.9168 N.ar    1  UNL1       -0.2295
     13 C         139.0518  144.4940  162.1363 C.ar    1  UNL1        0.1267
     14 N         137.6311  144.6062  162.6046 N.pl3   1  UNL1       -0.3426
     15 C         140.0234  143.6329  162.8876 C.ar    1  UNL1        0.0500
     16 H         136.9934  145.1714  162.1115 H       1  UNL1        0.1437
     17 H         137.3364  144.1147  163.4051 H       1  UNL1        0.1437
     18 C         144.0778  138.8184  165.7482 C.3     1  UNL1        0.0193
     19 C         142.8401  138.6945  166.5865 C.3     1  UNL1        0.0053
     20 C         141.9021  139.8579  166.7155 C.3     1  UNL1        0.0474
     21 C         140.8312  139.8450  167.7657 C.3     1  UNL1        0.2054
     22 O         139.4106  139.5505  167.3848 O.3     1  UNL1       -0.4755
     23 C         138.2595  139.2568  163.0445 C.ar    1  UNL1        0.0226
     24 C         138.1014  140.5567  163.7761 C.ar    1  UNL1        0.0048
     25 C         138.4851  140.6546  165.2228 C.ar    1  UNL1        0.0369
     26 C         139.0269  139.4526  165.9380 C.ar    1  UNL1        0.1386
     27 C         139.1851  138.1527  165.2064 C.ar    1  UNL1        0.0369
     28 C         138.8014  138.0548  163.7597 C.ar    1  UNL1        0.0048
     29 N         138.8099  139.6638  160.5382 N.2     1  UNL1       -0.0814
     30 C         137.8758  139.1590  161.5977 C.2     1  UNL1        0.1400
     31 O         138.4262  139.5659  159.0914 O.2     1  UNL1       -0.3773
     32 C         138.4260  142.1536  158.8588 C.3     1  UNL1        0.0543
     33 C         138.0464  140.8018  158.3310 C.3     1  UNL1        0.2386
@<TRIPOS>BOND
     1    32    33    1
     2    33    31    1
     3    31    29    1
     4    29    30    2
     5    30    23    1
     6    23    24   ar
     7    24    25   ar
     8    25    26   ar
     9    26    22    1
    10    22    21    1
    11    21    20    1
    12    20    19    1
    13    19    18    1
    14    18     1    1
    15     1     2    1
    16     2     3    1
    17     3     4    1
    18     4     5    1
    19     5     9    1
    20     9    10   ar
    21    10    11   ar
    22    11    12   ar
    23    12    13   ar
    24    13    14    1
    25    13    15   ar
    26     5     6    1
    27     6     7    2
    28     6     8    2
    29    26    27   ar
    30    27    28   ar
    31    28    23   ar
    32     6     2    1
    33    15     9   ar
    34    14    16    1
    35    14    17    1
@<TRIPOS>MOLECULE
*****
 33 35 0 0 0
SMALL
GASTEIGER

@<TRIPOS>ATOM
      1 C         138.2185  144.2653  162.7993 C.3     1  UNL1        0.0972
      2 N         138.2033  142.9982  161.9967 N.3     1  UNL1       -0.1408
      3 C         137.5688  141.7024  162.4067 C.3     1  UNL1        0.1205
      4 C         137.7931  140.7077  161.3065 C.3     1  UNL1        0.1361
      5 N         138.5663  141.3889  160.2165 N.pl3   1  UNL1       -0.1792
      6 S         138.8197  142.8045  160.6430 S.O2    1  UNL1        0.1161
      7 O         139.5199  142.9115  159.3207 O.2     1  UNL1       -0.1377
      8 O         139.2195  144.2425  160.7931 O.2     1  UNL1       -0.1377
      9 C         139.0084  140.7642  158.9264 C.ar    1  UNL1        0.0742
     10 C         138.0739  140.7237  157.7537 C.ar    1  UNL1        0.0369
     11 C         138.5159  140.0990  156.4636 C.ar    1  UNL1        0.1016
     12 N         139.8926  139.5149  156.3463 N.ar    1  UNL1       -0.2295
     13 C         140.8270  139.5554  157.5189 C.ar    1  UNL1        0.1267
     14 N         142.2037  138.9712  157.4014 N.pl3   1  UNL1       -0.3426
     15 C         140.3849  140.1801  158.8090 C.ar    1  UNL1        0.0500
     16 H         142.4938  138.5612  156.5547 H       1  UNL1        0.1437
     17 H         142.8170  138.9978  158.1711 H       1  UNL1        0.1437
     18 C         137.8548  144.2360  164.2542 C.3     1  UNL1        0.0193
     19 C         138.8880  144.5597  165.2923 C.3     1  UNL1        0.0053
     20 C         139.8621  143.5082  165.7345 C.3     1  UNL1        0.0474
     21 C         139.6999  142.0918  165.2679 C.3     1  UNL1        0.2054
     22 O         139.2353  141.0352  166.2257 O.3     1  UNL1       -0.4755
     23 C         142.0466  139.4459  169.3595 C.ar    1  UNL1        0.0226
     24 C         142.5066  139.5806  167.9382 C.ar    1  UNL1        0.0048
     25 C         141.5695  140.1104  166.8936 C.ar    1  UNL1        0.0369
     26 C         140.1724  140.5054  167.2703 C.ar    1  UNL1        0.1386
     27 C         139.7124  140.3707  168.6917 C.ar    1  UNL1        0.0369
     28 C         140.6495  139.8409  169.7363 C.ar    1  UNL1        0.0048
     29 N         143.5116  137.5162  170.2976 N.2     1  UNL1       -0.0814
     30 C         142.9837  138.9161  170.4041 C.2     1  UNL1        0.1400
     31 O         144.4487  136.9864  171.3422 O.2     1  UNL1       -0.3773
     32 C         145.6670  134.9848  172.4643 C.3     1  UNL1        0.0543
     33 C         144.7021  135.5114  171.4437 C.3     1  UNL1        0.2386
@<TRIPOS>BOND
     1    32    33    1
     2    33    31    1
     3    31    29    1
     4    29    30    2
     5    30    23    1
     6    23    24   ar
     7    24    25   ar
     8    25    26   ar
     9    26    22    1
    10    22    21    1
    11    21    20    1
    12    20    19    1
    13    19    18    1
    14    18     1    1
    15     1     2    1
    16     2     3    1
    17     3     4    1
    18     4     5    1
    19     5     9    1
    20     9    10   ar
    21    10    11   ar
    22    11    12   ar
    23    12    13   ar
    24    13    14    1
    25    13    15   ar
    26     5     6    1
    27     6     7    2
    28     6     8    2
    29    26    27   ar
    30    27    28   ar
    31    28    23   ar
    32     6     2    1
    33    15     9   ar
    34    14    16    1
    35    14    17    1
@<TRIPOS>MOLECULE
*****
 33 35 0 0 0
SMALL
GASTEIGER

@<TRIPOS>ATOM
      1 C         140.9975  137.8914  162.3445 C.3     1  UNL1        0.0972
      2 N         141.2634  139.3542  162.5430 N.3     1  UNL1       -0.1408
      3 C         142.3215  139.9461  163.4261 C.3     1  UNL1        0.1205
      4 C         142.2299  141.4397  163.3222 C.3     1  UNL1        0.1361
      5 N         141.1151  141.7709  162.3747 N.pl3   1  UNL1       -0.1792
      6 S         140.5178  140.4820  161.8932 S.O2    1  UNL1        0.1161
      7 O         139.6075  141.3796  161.1083 O.2     1  UNL1       -0.1377
      8 O         139.7302  139.3807  161.2475 O.2     1  UNL1       -0.1377
      9 C         140.6750  143.1490  161.9784 C.ar    1  UNL1        0.0742
     10 C         139.5840  143.8371  162.7441 C.ar    1  UNL1        0.0369
     11 C         139.1438  145.2152  162.3477 C.ar    1  UNL1        0.1016
     12 N         139.7948  145.9052  161.1857 N.ar    1  UNL1       -0.2295
     13 C         140.8857  145.2171  160.4201 C.ar    1  UNL1        0.1267
     14 N         141.5366  145.9072  159.2581 N.pl3   1  UNL1       -0.3426
     15 C         141.3259  143.8390  160.8164 C.ar    1  UNL1        0.0500
     16 H         141.2477  146.8117  158.9979 H       1  UNL1        0.1437
     17 H         142.2527  145.4556  158.7555 H       1  UNL1        0.1437
     18 C         140.6983  137.0164  163.5255 C.3     1  UNL1        0.0193
     19 C         140.0209  137.5927  164.7334 C.3     1  UNL1        0.0053
     20 C         138.6986  138.2867  164.5921 C.3     1  UNL1        0.0474
     21 C         138.1374  139.0723  165.7402 C.3     1  UNL1        0.2054
     22 O         138.8965  140.2435  166.2897 O.3     1  UNL1       -0.4755
     23 C         142.0084  139.6122  169.4784 C.ar    1  UNL1        0.0226
     24 C         142.3932  139.5413  168.0303 C.ar    1  UNL1        0.0048
     25 C         141.3559  139.7517  166.9674 C.ar    1  UNL1        0.0369
     26 C         139.9338  140.0331  167.3526 C.ar    1  UNL1        0.1386
     27 C         139.5490  140.1040  168.8006 C.ar    1  UNL1        0.0369
     28 C         140.5863  139.8936  169.8635 C.ar    1  UNL1        0.0048
     29 N         143.7160  138.0673  170.6813 N.2     1  UNL1       -0.0814
     30 C         143.0457  139.4018  170.5412 C.2     1  UNL1        0.1400
     31 O         144.7533  137.8568  171.7442 O.2     1  UNL1       -0.3773
     32 C         146.8525  136.3332  171.8925 C.3     1  UNL1        0.0543
     33 C         145.3625  136.5001  171.9395 C.3     1  UNL1        0.2386
@<TRIPOS>BOND
     1    32    33    1
     2    33    31    1
     3    31    29    1
     4    29    30    2
     5    30    23    1
     6    23    24   ar
     7    24    25   ar
     8    25    26   ar
     9    26    22    1
    10    22    21    1
    11    21    20    1
    12    20    19    1
    13    19    18    1
    14    18     1    1
    15     1     2    1
    16     2     3    1
    17     3     4    1
    18     4     5    1
    19     5     9    1
    20     9    10   ar
    21    10    11   ar
    22    11    12   ar
    23    12    13   ar
    24    13    14    1
    25    13    15   ar
    26     5     6    1
    27     6     7    2
    28     6     8    2
    29    26    27   ar
    30    27    28   ar
    31    28    23   ar
    32     6     2    1
    33    15     9   ar
    34    14    16    1
    35    14    17    1
@<TRIPOS>MOLECULE
*****
 33 35 0 0 0
SMALL
GASTEIGER

@<TRIPOS>ATOM
      1 C         138.9158  138.0073  164.7473 C.3     1  UNL1        0.0972
      2 N         139.7690  138.8443  165.6535 N.3     1  UNL1       -0.1408
      3 C         141.1612  139.3206  165.3622 C.3     1  UNL1        0.1205
      4 C         141.6325  140.1227  166.5389 C.3     1  UNL1        0.1361
      5 N         140.5315  140.1422  167.5574 N.pl3   1  UNL1       -0.1792
      6 S         139.3798  139.3521  167.0102 S.O2    1  UNL1        0.1161
      7 O         138.7210  139.7104  168.3094 O.2     1  UNL1       -0.1377
      8 O         138.0904  138.6369  166.7346 O.2     1  UNL1       -0.1377
      9 C         140.5746  140.8308  168.8893 C.ar    1  UNL1        0.0742
     10 C         140.9435  140.0587  170.1213 C.ar    1  UNL1        0.0369
     11 C         140.9866  140.7474  171.4532 C.ar    1  UNL1        0.1016
     12 N         140.6608  142.2082  171.5530 N.ar    1  UNL1       -0.2295
     13 C         140.2919  142.9803  170.3211 C.ar    1  UNL1        0.1267
     14 N         139.9661  144.4411  170.4210 N.pl3   1  UNL1       -0.3426
     15 C         140.2488  142.2916  168.9892 C.ar    1  UNL1        0.0500
     16 H         139.9944  144.8931  171.2951 H       1  UNL1        0.1437
     17 H         139.7240  144.9479  169.6124 H       1  UNL1        0.1437
     18 C         138.5970  138.4875  163.3625 C.3     1  UNL1        0.0193
     19 C         139.4561  138.0676  162.2067 C.3     1  UNL1        0.0053
     20 C         138.9723  138.2676  160.8010 C.3     1  UNL1        0.0474
     21 C         137.6757  138.9782  160.5481 C.3     1  UNL1        0.2054
     22 O         137.6794  140.4167  160.1230 O.3     1  UNL1       -0.4755
     23 C         140.3608  143.3711  162.2042 C.ar    1  UNL1        0.0226
     24 C         139.0146  143.0451  162.7798 C.ar    1  UNL1        0.0048
     25 C         138.1208  142.0603  162.0860 C.ar    1  UNL1        0.0369
     26 C         138.5732  141.4015  160.8167 C.ar    1  UNL1        0.1386
     27 C         139.9195  141.7274  160.2412 C.ar    1  UNL1        0.0369
     28 C         140.8133  142.7122  160.9349 C.ar    1  UNL1        0.0048
     29 N         142.7436  144.2512  162.7498 N.2     1  UNL1       -0.0814
     30 C         141.2546  144.3559  162.8979 C.2     1  UNL1        0.1400
     31 O         143.6374  145.2360  163.4435 O.2     1  UNL1       -0.3773
     32 C         144.3955  143.5172  165.2384 C.3     1  UNL1        0.0543
     33 C         144.1579  144.9375  164.8184 C.3     1  UNL1        0.2386
@<TRIPOS>BOND
     1    32    33    1
     2    33    31    1
     3    31    29    1
     4    29    30    2
     5    30    23    1
     6    23    24   ar
     7    24    25   ar
     8    25    26   ar
     9    26    22    1
    10    22    21    1
    11    21    20    1
    12    20    19    1
    13    19    18    1
    14    18     1    1
    15     1     2    1
    16     2     3    1
    17     3     4    1
    18     4     5    1
    19     5     9    1
    20     9    10   ar
    21    10    11   ar
    22    11    12   ar
    23    12    13   ar
    24    13    14    1
    25    13    15   ar
    26     5     6    1
    27     6     7    2
    28     6     8    2
    29    26    27   ar
    30    27    28   ar
    31    28    23   ar
    32     6     2    1
    33    15     9   ar
    34    14    16    1
    35    14    17    1
@<TRIPOS>MOLECULE
*****
 33 35 0 0 0
SMALL
GASTEIGER

@<TRIPOS>ATOM
      1 C         137.8430  144.5149  162.9591 C.3     1  UNL1        0.0972
      2 N         139.0948  144.3405  162.1512 N.3     1  UNL1       -0.1408
      3 C         140.2584  145.2863  162.1129 C.3     1  UNL1        0.1205
      4 C         141.2855  144.7200  161.1778 C.3     1  UNL1        0.1361
      5 N         140.7567  143.4241  160.6382 N.pl3   1  UNL1       -0.1792
      6 S         139.4028  143.1896  161.2398 S.O2    1  UNL1        0.1161
      7 O         139.4288  141.9348  160.4182 O.2     1  UNL1       -0.1377
      8 O         138.0543  142.6928  161.6696 O.2     1  UNL1       -0.1377
      9 C         141.4586  142.5214  159.6675 C.ar    1  UNL1        0.0742
     10 C         141.2679  142.7134  158.1921 C.ar    1  UNL1        0.0369
     11 C         141.9698  141.8107  157.2213 C.ar    1  UNL1        0.1016
     12 N         142.8623  140.7158  157.7261 N.ar    1  UNL1       -0.2295
     13 C         143.0529  140.5237  159.2014 C.ar    1  UNL1        0.1267
     14 N         143.9454  139.4288  159.7060 N.pl3   1  UNL1       -0.3426
     15 C         142.3510  141.4265  160.1721 C.ar    1  UNL1        0.0500
     16 H         144.4061  138.8362  159.0689 H       1  UNL1        0.1437
     17 H         144.0706  139.3027  160.6744 H       1  UNL1        0.1437
     18 C         137.8835  144.3515  164.4496 C.3     1  UNL1        0.0193
     19 C         139.1921  144.4344  165.1779 C.3     1  UNL1        0.0053
     20 C         139.9508  143.1816  165.5019 C.3     1  UNL1        0.0474
     21 C         139.4436  141.8531  165.0246 C.3     1  UNL1        0.2054
     22 O         139.0638  140.7947  166.0173 O.3     1  UNL1       -0.4755
     23 C         142.0326  139.4513  169.1208 C.ar    1  UNL1        0.0226
     24 C         140.6385  139.8253  169.5288 C.ar    1  UNL1        0.0048
     25 C         139.6489  140.2731  168.4943 C.ar    1  UNL1        0.0369
     26 C         140.0534  140.3469  167.0518 C.ar    1  UNL1        0.1386
     27 C         141.4475  139.9729  166.6438 C.ar    1  UNL1        0.0369
     28 C         142.4371  139.5251  167.6782 C.ar    1  UNL1        0.0048
     29 N         143.3582  137.5480  170.2913 N.2     1  UNL1       -0.0814
     30 C         143.0222  139.0035  170.1552 C.2     1  UNL1        0.1400
     31 O         144.3479  137.1001  171.3257 O.2     1  UNL1       -0.3773
     32 C         145.3903  134.9523  172.3505 C.3     1  UNL1        0.0543
     33 C         145.0763  135.8002  171.1536 C.3     1  UNL1        0.2386
@<TRIPOS>BOND
     1    32    33    1
     2    33    31    1
     3    31    29    1
     4    29    30    2
     5    30    23    1
     6    23    24   ar
     7    24    25   ar
     8    25    26   ar
     9    26    22    1
    10    22    21    1
    11    21    20    1
    12    20    19    1
    13    19    18    1
    14    18     1    1
    15     1     2    1
    16     2     3    1
    17     3     4    1
    18     4     5    1
    19     5     9    1
    20     9    10   ar
    21    10    11   ar
    22    11    12   ar
    23    12    13   ar
    24    13    14    1
    25    13    15   ar
    26     5     6    1
    27     6     7    2
    28     6     8    2
    29    26    27   ar
    30    27    28   ar
    31    28    23   ar
    32     6     2    1
    33    15     9   ar
    34    14    16    1
    35    14    17    1
@<TRIPOS>MOLECULE
*****
 33 35 0 0 0
SMALL
GASTEIGER

@<TRIPOS>ATOM
      1 C         139.1585  141.5332  163.6121 C.3     1  UNL1        0.0972
      2 N         139.1827  140.9859  165.0085 N.3     1  UNL1       -0.1408
      3 C         138.3319  139.8668  165.5318 C.3     1  UNL1        0.1205
      4 C         138.6854  139.6508  166.9735 C.3     1  UNL1        0.1361
      5 N         139.7547  140.6364  167.3412 N.pl3   1  UNL1       -0.1792
      6 S         140.0620  141.4615  166.1268 S.O2    1  UNL1        0.1161
      7 O         141.0488  142.1393  167.0307 O.2     1  UNL1       -0.1377
      8 O         140.5757  142.4283  165.1013 O.2     1  UNL1       -0.1377
      9 C         140.4028  140.7730  168.6870 C.ar    1  UNL1        0.0742
     10 C         139.9022  141.7990  169.6600 C.ar    1  UNL1        0.0369
     11 C         140.5504  141.9356  171.0058 C.ar    1  UNL1        0.1016
     12 N         141.6992  141.0460  171.3786 N.ar    1  UNL1       -0.2295
     13 C         142.1997  140.0200  170.4057 C.ar    1  UNL1        0.1267
     14 N         143.3486  139.1304  170.7787 N.pl3   1  UNL1       -0.3426
     15 C         141.5516  139.8834  169.0599 C.ar    1  UNL1        0.0500
     16 H         143.7740  139.2200  171.6620 H       1  UNL1        0.1437
     17 H         143.6771  138.4569  170.1401 H       1  UNL1        0.1437
     18 C         137.8835  142.0821  163.0438 C.3     1  UNL1        0.0193
     19 C         137.7309  143.5594  162.8335 C.3     1  UNL1        0.0053
     20 C         138.8255  144.4941  163.2557 C.3     1  UNL1        0.0474
     21 C         139.2461  145.6140  162.3507 C.3     1  UNL1        0.2054
     22 O         140.5884  145.5744  161.6825 O.3     1  UNL1       -0.4755
     23 C         143.5264  142.3294  162.7259 C.ar    1  UNL1        0.0226
     24 C         142.5461  142.1230  161.6095 C.ar    1  UNL1        0.0048
     25 C         141.5668  143.2047  161.2617 C.ar    1  UNL1        0.0369
     26 C         141.5678  144.4927  162.0303 C.ar    1  UNL1        0.1386
     27 C         142.5481  144.6991  163.1467 C.ar    1  UNL1        0.0369
     28 C         143.5274  143.6175  163.4945 C.ar    1  UNL1        0.0048
     29 N         144.1569  140.2270  164.1159 N.2     1  UNL1       -0.0814
     30 C         144.5057  141.2478  163.0737 C.2     1  UNL1        0.1400
     31 O         145.1362  139.1453  164.4637 O.2     1  UNL1       -0.3773
     32 C         143.7632  138.1138  166.4132 C.3     1  UNL1        0.0543
     33 C         145.0847  138.4926  165.8133 C.3     1  UNL1        0.2386
@<TRIPOS>BOND
     1    32    33    1
     2    33    31    1
     3    31    29    1
     4    29    30    2
     5    30    23    1
     6    23    24   ar
     7    24    25   ar
     8    25    26   ar
     9    26    22    1
    10    22    21    1
    11    21    20    1
    12    20    19    1
    13    19    18    1
    14    18     1    1
    15     1     2    1
    16     2     3    1
    17     3     4    1
    18     4     5    1
    19     5     9    1
    20     9    10   ar
    21    10    11   ar
    22    11    12   ar
    23    12    13   ar
    24    13    14    1
    25    13    15   ar
    26     5     6    1
    27     6     7    2
    28     6     8    2
    29    26    27   ar
    30    27    28   ar
    31    28    23   ar
    32     6     2    1
    33    15     9   ar
    34    14    16    1
    35    14    17    1
