@<TRIPOS>MOLECULE
*****
 34 38 0 0 0
SMALL
GASTEIGER

@<TRIPOS>ATOM
      1 C         142.9177  139.0767  157.8489 C.2     1  UNL1        0.3045
      2 O         142.9077  140.3269  157.0201 O.2     1  UNL1       -0.2647
      3 N         143.2872  139.1426  159.3012 N.am    1  UNL1       -0.2720
      4 C         143.2973  137.8925  160.1300 C.3     1  UNL1        0.0976
      5 C         143.6667  137.9584  161.5822 C.3     1  UNL1        0.0651
      6 C         144.0261  139.2745  162.2057 C.3     1  UNL1        0.1694
      7 C         144.0160  140.5246  161.3769 C.3     1  UNL1        0.0651
      8 C         143.6466  140.4587  159.9246 C.3     1  UNL1        0.0976
      9 C         142.6944  135.4778  156.4123 C.ar    1  UNL1        0.2501
     10 N         141.3163  135.9929  156.1195 N.ar    1  UNL1       -0.1068
     11 N         141.2323  137.4037  156.6220 N.ar    1  UNL1       -0.1021
     12 C         142.5583  137.7606  157.2254 C.ar    1  UNL1        0.3042
     13 O         143.4620  136.5704  157.0958 O.2     1  UNL1       -0.4122
     14 C         144.2522  131.3754  155.4155 C.ar    1  UNL1        0.1387
     15 C         144.7130  132.0701  156.6625 C.ar    1  UNL1        0.0371
     16 C         144.1937  133.4376  156.9948 C.ar    1  UNL1        0.0078
     17 C         143.2136  134.1104  156.0801 C.ar    1  UNL1        0.0553
     18 C         142.7528  133.4157  154.8331 C.ar    1  UNL1        0.0078
     19 C         143.2721  132.0482  154.5008 C.ar    1  UNL1        0.0371
     20 C         143.8140  128.8722  154.8756 C.3     1  UNL1        0.2525
     21 O         144.7714  130.0080  155.0832 O.3     1  UNL1       -0.4714
     22 O         144.3956  139.3404  163.6580 O.3     1  UNL1       -0.4775
     23 C         143.3285  139.5266  164.6957 C.ar    1  UNL1        0.1574
     24 C         143.5531  139.0427  166.0976 C.ar    1  UNL1        0.0398
     25 C         142.4860  139.2290  167.1352 C.ar    1  UNL1        0.0193
     26 C         141.1944  139.8991  166.7709 C.ar    1  UNL1        0.0754
     27 N         140.9698  140.3829  165.3690 N.ar    1  UNL1       -0.2436
     28 C         142.0369  140.1967  164.3314 C.ar    1  UNL1        0.1352
     29 C         140.1273  140.0853  167.8087 C.3     1  UNL1        0.1186
     30 N         140.1341  141.3055  168.6809 N.3     1  UNL1       -0.2677
     31 C         139.6239  141.3856  170.0892 C.3     1  UNL1        0.0725
     32 C         139.8268  142.7895  170.5766 C.3     1  UNL1        0.0188
     33 C         140.4625  143.5773  169.4696 C.3     1  UNL1        0.0188
     34 C         140.6524  142.6601  168.2980 C.3     1  UNL1        0.0725
@<TRIPOS>BOND
     1    20    21    1
     2    21    14    1
     3    14    15   ar
     4    15    16   ar
     5    16    17   ar
     6    17     9    1
     7     9    10   ar
     8    10    11   ar
     9    11    12   ar
    10    12     1    1
    11     1     2    2
    12     1     3   am
    13     3     4    1
    14     4     5    1
    15     5     6    1
    16     6    22    1
    17    22    23    1
    18    23    24   ar
    19    24    25   ar
    20    25    26   ar
    21    26    29    1
    22    29    30    1
    23    30    31    1
    24    31    32    1
    25    32    33    1
    26    33    34    1
    27    26    27   ar
    28    27    28   ar
    29     6     7    1
    30     7     8    1
    31    12    13   ar
    32    17    18   ar
    33    18    19   ar
    34    19    14   ar
    35    13     9   ar
    36     8     3    1
    37    28    23   ar
    38    34    30    1
@<TRIPOS>MOLECULE
*****
 34 38 0 0 0
SMALL
GASTEIGER

@<TRIPOS>ATOM
      1 C         138.7056  139.0343  161.3587 C.2     1  UNL1        0.3045
      2 O         137.3727  139.4633  160.8207 O.2     1  UNL1       -0.2647
      3 N         139.8203  138.6920  160.4152 N.am    1  UNL1       -0.2720
      4 C         141.1532  138.2631  160.9532 C.3     1  UNL1        0.0976
      5 C         142.2678  137.9208  160.0098 C.3     1  UNL1        0.0651
      6 C         142.0498  138.0074  158.5283 C.3     1  UNL1        0.1694
      7 C         140.7169  138.4364  157.9903 C.3     1  UNL1        0.0651
      8 C         139.6022  138.7787  158.9338 C.3     1  UNL1        0.0976
      9 C         139.3832  139.5537  165.1451 C.ar    1  UNL1        0.2501
     10 N         139.1353  138.0751  165.0951 N.ar    1  UNL1       -0.1068
     11 N         138.8513  137.7006  163.6707 N.ar    1  UNL1       -0.1021
     12 C         138.9237  138.9477  162.8402 C.ar    1  UNL1        0.3042
     13 O         139.2524  140.0929  163.7515 O.2     1  UNL1       -0.4122
     14 C         140.3498  141.9506  168.8289 C.ar    1  UNL1        0.1387
     15 C         139.6396  140.6354  168.9548 C.ar    1  UNL1        0.0371
     16 C         139.3174  139.8364  167.7269 C.ar    1  UNL1        0.0078
     17 C         139.7054  140.3526  166.3730 C.ar    1  UNL1        0.0553
     18 C         140.4156  141.6678  166.2471 C.ar    1  UNL1        0.0078
     19 C         140.7378  142.4668  167.4751 C.ar    1  UNL1        0.0371
     20 C         142.0896  143.1482  170.3417 C.3     1  UNL1        0.2525
     21 O         140.6719  142.7496  170.0569 O.3     1  UNL1       -0.4714
     22 O         143.1645  137.6651  157.5848 O.3     1  UNL1       -0.4775
     23 C         143.1414  136.3652  156.8367 C.ar    1  UNL1        0.1574
     24 C         142.9541  136.3596  155.3485 C.ar    1  UNL1        0.0398
     25 C         142.9310  135.0596  154.6004 C.ar    1  UNL1        0.0193
     26 C         143.0951  133.7653  155.3406 C.ar    1  UNL1        0.0754
     27 N         143.2824  133.7709  156.8288 N.ar    1  UNL1       -0.2436
     28 C         143.3056  135.0709  157.5769 C.ar    1  UNL1        0.1352
     29 C         143.0720  132.4653  154.5924 C.3     1  UNL1        0.1186
     30 N         143.4044  131.1860  155.3013 N.3     1  UNL1       -0.2677
     31 C         142.4254  130.1286  155.7177 C.3     1  UNL1        0.0725
     32 C         143.1902  129.0285  156.3920 C.3     1  UNL1        0.0188
     33 C         144.6420  129.4059  156.3924 C.3     1  UNL1        0.0188
     34 C         144.7743  130.7393  155.7183 C.3     1  UNL1        0.0725
@<TRIPOS>BOND
     1    20    21    1
     2    21    14    1
     3    14    15   ar
     4    15    16   ar
     5    16    17   ar
     6    17     9    1
     7     9    10   ar
     8    10    11   ar
     9    11    12   ar
    10    12     1    1
    11     1     2    2
    12     1     3   am
    13     3     4    1
    14     4     5    1
    15     5     6    1
    16     6    22    1
    17    22    23    1
    18    23    24   ar
    19    24    25   ar
    20    25    26   ar
    21    26    29    1
    22    29    30    1
    23    30    31    1
    24    31    32    1
    25    32    33    1
    26    33    34    1
    27    26    27   ar
    28    27    28   ar
    29     6     7    1
    30     7     8    1
    31    12    13   ar
    32    17    18   ar
    33    18    19   ar
    34    19    14   ar
    35    13     9   ar
    36     8     3    1
    37    28    23   ar
    38    34    30    1
@<TRIPOS>MOLECULE
*****
 34 38 0 0 0
SMALL
GASTEIGER

@<TRIPOS>ATOM
      1 C         140.4144  140.0840  159.2275 C.2     1  UNL1        0.3045
      2 O         139.9231  141.3916  158.6809 O.2     1  UNL1       -0.2647
      3 N         139.8828  139.5695  160.5324 N.am    1  UNL1       -0.2720
      4 C         140.3741  138.2619  161.0790 C.3     1  UNL1        0.0976
      5 C         139.8425  137.7474  162.3838 C.3     1  UNL1        0.0651
      6 C         138.8197  138.5404  163.1420 C.3     1  UNL1        0.1694
      7 C         138.3284  139.8480  162.5954 C.3     1  UNL1        0.0651
      8 C         138.8600  140.3625  161.2905 C.3     1  UNL1        0.0976
      9 C         142.5551  137.4753  157.3099 C.ar    1  UNL1        0.2501
     10 N         143.4673  138.6659  157.2951 N.ar    1  UNL1       -0.1068
     11 N         142.7764  139.7881  158.0117 N.ar    1  UNL1       -0.1021
     12 C         141.4372  139.2910  158.4693 C.ar    1  UNL1        0.3042
     13 O         141.3004  137.8616  158.0356 O.2     1  UNL1       -0.4122
     14 C         143.4290  133.4510  155.4957 C.ar    1  UNL1        0.1387
     15 C         143.5960  133.6606  156.9715 C.ar    1  UNL1        0.0371
     16 C         143.3047  135.0020  157.5763 C.ar    1  UNL1        0.0078
     17 C         142.8464  136.1338  156.7052 C.ar    1  UNL1        0.0553
     18 C         142.6794  135.9243  155.2293 C.ar    1  UNL1        0.0078
     19 C         142.9707  134.5828  154.6246 C.ar    1  UNL1        0.0371
     20 C         144.6088  131.1392  155.6112 C.3     1  UNL1        0.2525
     21 O         143.7202  132.1095  154.8910 O.3     1  UNL1       -0.4714
     22 O         138.2881  138.0258  164.4469 O.3     1  UNL1       -0.4775
     23 C         138.6640  138.7054  165.7302 C.ar    1  UNL1        0.1574
     24 C         139.8998  139.5530  165.7959 C.ar    1  UNL1        0.0398
     25 C         140.2757  140.2326  167.0792 C.ar    1  UNL1        0.0193
     26 C         139.4158  140.0645  168.2968 C.ar    1  UNL1        0.0754
     27 N         138.1801  139.2169  168.2310 N.ar    1  UNL1       -0.2436
     28 C         137.8041  138.5373  166.9478 C.ar    1  UNL1        0.1352
     29 C         139.7918  140.7441  169.5801 C.3     1  UNL1        0.1186
     30 N         141.1851  141.2652  169.7727 N.3     1  UNL1       -0.2677
     31 C         141.6069  142.7028  169.6985 C.3     1  UNL1        0.0725
     32 C         143.0837  142.7662  169.9532 C.3     1  UNL1        0.0188
     33 C         143.5747  141.3679  170.1849 C.3     1  UNL1        0.0188
     34 C         142.4012  140.4402  170.0733 C.3     1  UNL1        0.0725
@<TRIPOS>BOND
     1    20    21    1
     2    21    14    1
     3    14    15   ar
     4    15    16   ar
     5    16    17   ar
     6    17     9    1
     7     9    10   ar
     8    10    11   ar
     9    11    12   ar
    10    12     1    1
    11     1     2    2
    12     1     3   am
    13     3     4    1
    14     4     5    1
    15     5     6    1
    16     6    22    1
    17    22    23    1
    18    23    24   ar
    19    24    25   ar
    20    25    26   ar
    21    26    29    1
    22    29    30    1
    23    30    31    1
    24    31    32    1
    25    32    33    1
    26    33    34    1
    27    26    27   ar
    28    27    28   ar
    29     6     7    1
    30     7     8    1
    31    12    13   ar
    32    17    18   ar
    33    18    19   ar
    34    19    14   ar
    35    13     9   ar
    36     8     3    1
    37    28    23   ar
    38    34    30    1
@<TRIPOS>MOLECULE
*****
 34 38 0 0 0
SMALL
GASTEIGER

@<TRIPOS>ATOM
      1 C         142.7275  138.8599  158.9370 C.2     1  UNL1        0.3045
      2 O         143.9801  139.6802  158.8472 O.2     1  UNL1       -0.2647
      3 N         141.6743  139.2072  159.9471 N.am    1  UNL1       -0.2720
      4 C         140.4217  138.3869  160.0370 C.3     1  UNL1        0.0976
      5 C         139.3686  138.7342  161.0470 C.3     1  UNL1        0.0651
      6 C         139.5681  139.9018  161.9673 C.3     1  UNL1        0.1694
      7 C         140.8207  140.7221  161.8775 C.3     1  UNL1        0.0651
      8 C         141.8739  140.3748  160.8674 C.3     1  UNL1        0.0976
      9 C         142.8035  135.5457  156.9182 C.ar    1  UNL1        0.2501
     10 N         141.6386  136.2454  156.2829 N.ar    1  UNL1       -0.1068
     11 N         141.4683  137.5721  156.9619 N.ar    1  UNL1       -0.1021
     12 C         142.5280  137.6923  158.0167 C.ar    1  UNL1        0.3042
     13 O         143.3531  136.4400  157.9897 O.2     1  UNL1       -0.4122
     14 C         144.3734  131.4781  155.8048 C.ar    1  UNL1        0.1387
     15 C         144.7675  132.1025  157.1104 C.ar    1  UNL1        0.0371
     16 C         144.2442  133.4584  157.4815 C.ar    1  UNL1        0.0078
     17 C         143.3268  134.1898  156.5470 C.ar    1  UNL1        0.0553
     18 C         142.9327  133.5654  155.2414 C.ar    1  UNL1        0.0078
     19 C         143.4560  132.2095  154.8703 C.ar    1  UNL1        0.0371
     20 C         143.9419  128.9945  155.1759 C.3     1  UNL1        0.2525
     21 O         144.8968  130.1222  155.4336 O.3     1  UNL1       -0.4714
     22 O         138.5150  140.2491  162.9774 O.3     1  UNL1       -0.4775
     23 C         138.8634  140.3044  164.4354 C.ar    1  UNL1        0.1574
     24 C         138.4393  139.1940  165.3504 C.ar    1  UNL1        0.0398
     25 C         138.7876  139.2493  166.8083 C.ar    1  UNL1        0.0193
     26 C         139.5601  140.4149  167.3512 C.ar    1  UNL1        0.0754
     27 N         139.9841  141.5252  166.4362 N.ar    1  UNL1       -0.2436
     28 C         139.6358  141.4700  164.9783 C.ar    1  UNL1        0.1352
     29 C         139.9084  140.4701  168.8092 C.3     1  UNL1        0.1186
     30 N         141.1236  141.2239  169.2620 N.3     1  UNL1       -0.2677
     31 C         141.1442  142.6274  169.7908 C.3     1  UNL1        0.0725
     32 C         142.5649  142.9774  170.1211 C.3     1  UNL1        0.0188
     33 C         143.4224  141.7902  169.7965 C.3     1  UNL1        0.0188
     34 C         142.5315  140.7064  169.2655 C.3     1  UNL1        0.0725
@<TRIPOS>BOND
     1    20    21    1
     2    21    14    1
     3    14    15   ar
     4    15    16   ar
     5    16    17   ar
     6    17     9    1
     7     9    10   ar
     8    10    11   ar
     9    11    12   ar
    10    12     1    1
    11     1     2    2
    12     1     3   am
    13     3     4    1
    14     4     5    1
    15     5     6    1
    16     6    22    1
    17    22    23    1
    18    23    24   ar
    19    24    25   ar
    20    25    26   ar
    21    26    29    1
    22    29    30    1
    23    30    31    1
    24    31    32    1
    25    32    33    1
    26    33    34    1
    27    26    27   ar
    28    27    28   ar
    29     6     7    1
    30     7     8    1
    31    12    13   ar
    32    17    18   ar
    33    18    19   ar
    34    19    14   ar
    35    13     9   ar
    36     8     3    1
    37    28    23   ar
    38    34    30    1
@<TRIPOS>MOLECULE
*****
 34 38 0 0 0
SMALL
GASTEIGER

@<TRIPOS>ATOM
      1 C         142.2290  138.5936  160.6651 C.2     1  UNL1        0.3045
      2 O         142.9488  137.3936  160.1249 O.2     1  UNL1       -0.2647
      3 N         142.5021  139.9528  160.0923 N.am    1  UNL1       -0.2720
      4 C         141.7823  141.1528  160.6325 C.3     1  UNL1        0.0976
      5 C         142.0553  142.5119  160.0597 C.3     1  UNL1        0.0651
      6 C         143.0482  142.6710  158.9466 C.3     1  UNL1        0.1694
      7 C         143.7679  141.4710  158.4064 C.3     1  UNL1        0.0651
      8 C         143.4949  140.1118  158.9793 C.3     1  UNL1        0.0976
      9 C         140.1297  138.6284  163.9297 C.ar    1  UNL1        0.2501
     10 N         139.2870  137.7508  163.0525 N.ar    1  UNL1       -0.1068
     11 N         139.9708  137.6309  161.7228 N.ar    1  UNL1       -0.1021
     12 C         141.2362  138.4345  161.7782 C.ar    1  UNL1        0.3042
     13 O         141.3344  139.0510  163.1421 O.2     1  UNL1       -0.4122
     14 C         139.2062  139.7898  168.1780 C.ar    1  UNL1        0.1387
     15 C         140.5326  140.1455  167.5747 C.ar    1  UNL1        0.0371
     16 C         140.8405  139.7584  166.1586 C.ar    1  UNL1        0.0078
     17 C         139.8219  139.0156  165.3458 C.ar    1  UNL1        0.0553
     18 C         138.4954  138.6599  165.9491 C.ar    1  UNL1        0.0078
     19 C         138.1876  139.0471  167.3652 C.ar    1  UNL1        0.0371
     20 C         139.8655  139.8417  170.6905 C.3     1  UNL1        0.2525
     21 O         138.8983  140.1770  169.5941 O.3     1  UNL1       -0.4714
     22 O         143.3212  144.0302  158.3737 O.3     1  UNL1       -0.4775
     23 C         142.2515  144.7496  157.6069 C.ar    1  UNL1        0.1574
     24 C         141.1908  145.5167  158.3392 C.ar    1  UNL1        0.0398
     25 C         140.1211  146.2361  157.5723 C.ar    1  UNL1        0.0193
     26 C         140.1121  146.1884  156.0731 C.ar    1  UNL1        0.0754
     27 N         141.1728  145.4213  155.3408 N.ar    1  UNL1       -0.2436
     28 C         142.2425  144.7019  156.1076 C.ar    1  UNL1        0.1352
     29 C         139.0423  146.9079  155.3062 C.3     1  UNL1        0.1186
     30 N         139.0371  148.4068  155.2526 N.3     1  UNL1       -0.2677
     31 C         138.4416  149.3238  156.2795 C.3     1  UNL1        0.0725
     32 C         138.6630  150.7357  155.8242 C.3     1  UNL1        0.0188
     33 C         139.3953  150.6915  154.5159 C.3     1  UNL1        0.0188
     34 C         139.6266  149.2521  154.1627 C.3     1  UNL1        0.0725
@<TRIPOS>BOND
     1    20    21    1
     2    21    14    1
     3    14    15   ar
     4    15    16   ar
     5    16    17   ar
     6    17     9    1
     7     9    10   ar
     8    10    11   ar
     9    11    12   ar
    10    12     1    1
    11     1     2    2
    12     1     3   am
    13     3     4    1
    14     4     5    1
    15     5     6    1
    16     6    22    1
    17    22    23    1
    18    23    24   ar
    19    24    25   ar
    20    25    26   ar
    21    26    29    1
    22    29    30    1
    23    30    31    1
    24    31    32    1
    25    32    33    1
    26    33    34    1
    27    26    27   ar
    28    27    28   ar
    29     6     7    1
    30     7     8    1
    31    12    13   ar
    32    17    18   ar
    33    18    19   ar
    34    19    14   ar
    35    13     9   ar
    36     8     3    1
    37    28    23   ar
    38    34    30    1
@<TRIPOS>MOLECULE
*****
 34 38 0 0 0
SMALL
GASTEIGER

@<TRIPOS>ATOM
      1 C         138.2730  143.3391  155.4083 C.2     1  UNL1        0.3045
      2 O         138.4111  144.0273  154.0827 O.2     1  UNL1       -0.2647
      3 N         139.0658  143.8180  156.5882 N.am    1  UNL1       -0.2720
      4 C         138.9277  143.1299  157.9138 C.3     1  UNL1        0.0976
      5 C         139.7204  143.6088  159.0936 C.3     1  UNL1        0.0651
      6 C         140.6514  144.7758  158.9479 C.3     1  UNL1        0.1694
      7 C         140.7895  145.4640  157.6222 C.3     1  UNL1        0.0651
      8 C         139.9967  144.9851  156.4424 C.3     1  UNL1        0.0976
      9 C         135.3336  140.8473  155.8733 C.ar    1  UNL1        0.2501
     10 N         136.4852  139.9050  155.6834 N.ar    1  UNL1       -0.1068
     11 N         137.7264  140.7237  155.4862 N.ar    1  UNL1       -0.1021
     12 C         137.3420  142.1720  155.5541 C.ar    1  UNL1        0.3042
     13 O         135.8632  142.2484  155.7933 O.2     1  UNL1       -0.4122
     14 C         131.0435  139.6763  156.5617 C.ar    1  UNL1        0.1387
     15 C         131.3665  140.9525  155.8428 C.ar    1  UNL1        0.0371
     16 C         132.7965  141.3428  155.6133 C.ar    1  UNL1        0.0078
     17 C         133.9036  140.4569  156.1028 C.ar    1  UNL1        0.0553
     18 C         133.5806  139.1807  156.8217 C.ar    1  UNL1        0.0078
     19 C         132.1505  138.7904  157.0512 C.ar    1  UNL1        0.0371
     20 C         129.0073  139.4271  158.1560 C.3     1  UNL1        0.2525
     21 O         129.6135  139.2860  156.7912 O.3     1  UNL1       -0.4714
     22 O         141.4442  145.2548  160.1278 O.3     1  UNL1       -0.4775
     23 C         141.1201  144.7517  161.5032 C.ar    1  UNL1        0.1574
     24 C         140.0346  145.4067  162.3048 C.ar    1  UNL1        0.0398
     25 C         139.7105  144.9036  163.6803 C.ar    1  UNL1        0.0193
     26 C         140.4719  143.7457  164.2541 C.ar    1  UNL1        0.0754
     27 N         141.5575  143.0907  163.4525 N.ar    1  UNL1       -0.2436
     28 C         141.8816  143.5937  162.0770 C.ar    1  UNL1        0.1352
     29 C         140.1478  143.2426  165.6296 C.3     1  UNL1        0.1186
     30 N         139.5637  141.8728  165.8090 N.3     1  UNL1       -0.2677
     31 C         139.9015  140.9069  166.9058 C.3     1  UNL1        0.0725
     32 C         139.0858  139.6655  166.6977 C.3     1  UNL1        0.0188
     33 C         138.2438  139.8640  165.4722 C.3     1  UNL1        0.0188
     34 C         138.5393  141.2282  164.9230 C.3     1  UNL1        0.0725
@<TRIPOS>BOND
     1    20    21    1
     2    21    14    1
     3    14    15   ar
     4    15    16   ar
     5    16    17   ar
     6    17     9    1
     7     9    10   ar
     8    10    11   ar
     9    11    12   ar
    10    12     1    1
    11     1     2    2
    12     1     3   am
    13     3     4    1
    14     4     5    1
    15     5     6    1
    16     6    22    1
    17    22    23    1
    18    23    24   ar
    19    24    25   ar
    20    25    26   ar
    21    26    29    1
    22    29    30    1
    23    30    31    1
    24    31    32    1
    25    32    33    1
    26    33    34    1
    27    26    27   ar
    28    27    28   ar
    29     6     7    1
    30     7     8    1
    31    12    13   ar
    32    17    18   ar
    33    18    19   ar
    34    19    14   ar
    35    13     9   ar
    36     8     3    1
    37    28    23   ar
    38    34    30    1
@<TRIPOS>MOLECULE
*****
 34 38 0 0 0
SMALL
GASTEIGER

@<TRIPOS>ATOM
      1 C         140.9671  139.4398  157.2587 C.2     1  UNL1        0.3045
      2 O         140.9013  140.5587  156.2619 O.2     1  UNL1       -0.2647
      3 N         140.2085  139.5392  158.5489 N.am    1  UNL1       -0.2720
      4 C         140.2742  138.4203  159.5458 C.3     1  UNL1        0.0976
      5 C         139.5156  138.5196  160.8359 C.3     1  UNL1        0.0651
      6 C         138.6912  139.7379  161.1293 C.3     1  UNL1        0.1694
      7 C         138.6255  140.8568  160.1325 C.3     1  UNL1        0.0651
      8 C         139.3841  140.7575  158.8423 C.3     1  UNL1        0.0976
      9 C         142.4410  135.9236  156.5309 C.ar    1  UNL1        0.2501
     10 N         143.6792  136.7697  156.4968 N.ar    1  UNL1       -0.1068
     11 N         143.2778  138.1898  156.7653 N.ar    1  UNL1       -0.1021
     12 C         141.7915  138.2215  156.9653 C.ar    1  UNL1        0.3042
     13 O         141.2744  136.8209  156.8204 O.2     1  UNL1       -0.4122
     14 C         142.2585  131.4749  155.8788 C.ar    1  UNL1        0.1387
     15 C         141.3690  132.3862  155.0862 C.ar    1  UNL1        0.0371
     16 C         141.4299  133.8691  155.3035 C.ar    1  UNL1        0.0078
     17 C         142.3802  134.4407  156.3135 C.ar    1  UNL1        0.0553
     18 C         143.2696  133.5294  157.1062 C.ar    1  UNL1        0.0078
     19 C         143.2088  132.0465  156.8888 C.ar    1  UNL1        0.0371
     20 C         143.1498  129.0879  156.3868 C.3     1  UNL1        0.2525
     21 O         142.1977  129.9920  155.6615 O.3     1  UNL1       -0.4714
     22 O         137.9326  139.8373  162.4195 O.3     1  UNL1       -0.4775
     23 C         138.6739  139.9382  163.7196 C.ar    1  UNL1        0.1574
     24 C         138.4294  138.9296  164.8025 C.ar    1  UNL1        0.0398
     25 C         139.1707  139.0305  166.1026 C.ar    1  UNL1        0.0193
     26 C         140.1565  140.1400  166.3197 C.ar    1  UNL1        0.0754
     27 N         140.4010  141.1487  165.2368 N.ar    1  UNL1       -0.2436
     28 C         139.6597  141.0478  163.9367 C.ar    1  UNL1        0.1352
     29 C         140.8979  140.2409  167.6199 C.3     1  UNL1        0.1186
     30 N         140.5795  141.3477  168.5809 N.3     1  UNL1       -0.2677
     31 C         139.7551  141.2228  169.8278 C.3     1  UNL1        0.0725
     32 C         139.6958  142.5717  170.4812 C.3     1  UNL1        0.0188
     33 C         140.4836  143.5303  169.6382 C.3     1  UNL1        0.0188
     34 C         141.0297  142.7737  168.4637 C.3     1  UNL1        0.0725
@<TRIPOS>BOND
     1    20    21    1
     2    21    14    1
     3    14    15   ar
     4    15    16   ar
     5    16    17   ar
     6    17     9    1
     7     9    10   ar
     8    10    11   ar
     9    11    12   ar
    10    12     1    1
    11     1     2    2
    12     1     3   am
    13     3     4    1
    14     4     5    1
    15     5     6    1
    16     6    22    1
    17    22    23    1
    18    23    24   ar
    19    24    25   ar
    20    25    26   ar
    21    26    29    1
    22    29    30    1
    23    30    31    1
    24    31    32    1
    25    32    33    1
    26    33    34    1
    27    26    27   ar
    28    27    28   ar
    29     6     7    1
    30     7     8    1
    31    12    13   ar
    32    17    18   ar
    33    18    19   ar
    34    19    14   ar
    35    13     9   ar
    36     8     3    1
    37    28    23   ar
    38    34    30    1
@<TRIPOS>MOLECULE
*****
 34 38 0 0 0
SMALL
GASTEIGER

@<TRIPOS>ATOM
      1 C         140.7429  138.8623  156.2723 C.2     1  UNL1        0.3045
      2 O         140.5821  139.6166  154.9858 O.2     1  UNL1       -0.2647
      3 N         139.8820  139.2011  157.4530 N.am    1  UNL1       -0.2720
      4 C         140.0428  138.4468  158.7395 C.3     1  UNL1        0.0976
      5 C         139.1820  138.7856  159.9201 C.3     1  UNL1        0.0651
      6 C         138.1602  139.8786  159.8143 C.3     1  UNL1        0.1694
      7 C         137.9994  140.6329  158.5278 C.3     1  UNL1        0.0651
      8 C         138.8603  140.2942  157.3471 C.3     1  UNL1        0.0976
      9 C         142.7897  135.5745  156.5294 C.ar    1  UNL1        0.2501
     10 N         143.8843  136.5998  156.5524 N.ar    1  UNL1       -0.1068
     11 N         143.2508  137.9563  156.4589 N.ar    1  UNL1       -0.1021
     12 C         141.7647  137.7693  156.3781 C.ar    1  UNL1        0.3042
     13 O         141.4798  136.2972  156.4217 O.2     1  UNL1       -0.4122
     14 C         143.3394  131.1134  156.7457 C.ar    1  UNL1        0.1387
     15 C         142.2314  131.6933  155.9175 C.ar    1  UNL1        0.0371
     16 C         142.0481  133.1803  155.8454 C.ar    1  UNL1        0.0078
     17 C         142.9729  134.0874  156.6015 C.ar    1  UNL1        0.0553
     18 C         144.0809  133.5076  157.4298 C.ar    1  UNL1        0.0078
     19 C         144.2641  132.0206  157.5019 C.ar    1  UNL1        0.0371
     20 C         142.4974  128.7142  156.2123 C.3     1  UNL1        0.2525
     21 O         143.5226  129.6264  156.8178 O.3     1  UNL1       -0.4714
     22 O         137.2993  140.2174  160.9950 O.3     1  UNL1       -0.4775
     23 C         137.8567  141.0408  162.1181 C.ar    1  UNL1        0.1574
     24 C         137.8702  140.4933  163.5145 C.ar    1  UNL1        0.0398
     25 C         138.4277  141.3168  164.6375 C.ar    1  UNL1        0.0193
     26 C         138.9716  142.6877  164.3641 C.ar    1  UNL1        0.0754
     27 N         138.9580  143.2352  162.9677 N.ar    1  UNL1       -0.2436
     28 C         138.4006  142.4118  161.8447 C.ar    1  UNL1        0.1352
     29 C         139.5290  143.5111  165.4872 C.3     1  UNL1        0.1186
     30 N         140.6485  142.9729  166.3280 N.3     1  UNL1       -0.2677
     31 C         142.0152  142.5945  165.8390 C.3     1  UNL1        0.0725
     32 C         142.8092  142.1063  167.0142 C.3     1  UNL1        0.0188
     33 C         141.9334  142.1830  168.2296 C.3     1  UNL1        0.0188
     34 C         140.5980  142.7186  167.8054 C.3     1  UNL1        0.0725
@<TRIPOS>BOND
     1    20    21    1
     2    21    14    1
     3    14    15   ar
     4    15    16   ar
     5    16    17   ar
     6    17     9    1
     7     9    10   ar
     8    10    11   ar
     9    11    12   ar
    10    12     1    1
    11     1     2    2
    12     1     3   am
    13     3     4    1
    14     4     5    1
    15     5     6    1
    16     6    22    1
    17    22    23    1
    18    23    24   ar
    19    24    25   ar
    20    25    26   ar
    21    26    29    1
    22    29    30    1
    23    30    31    1
    24    31    32    1
    25    32    33    1
    26    33    34    1
    27    26    27   ar
    28    27    28   ar
    29     6     7    1
    30     7     8    1
    31    12    13   ar
    32    17    18   ar
    33    18    19   ar
    34    19    14   ar
    35    13     9   ar
    36     8     3    1
    37    28    23   ar
    38    34    30    1
@<TRIPOS>MOLECULE
*****
 34 38 0 0 0
SMALL
GASTEIGER

@<TRIPOS>ATOM
      1 C         138.1271  139.8463  159.7920 C.2     1  UNL1        0.3045
      2 O         136.6627  139.5393  159.8979 O.2     1  UNL1       -0.2647
      3 N         139.0828  139.3044  160.8133 N.am    1  UNL1       -0.2720
      4 C         140.5472  139.6113  160.7073 C.3     1  UNL1        0.0976
      5 C         141.5029  139.0695  161.7285 C.3     1  UNL1        0.0651
      6 C         140.9942  138.2207  162.8558 C.3     1  UNL1        0.1694
      7 C         139.5298  137.9138  162.9618 C.3     1  UNL1        0.0651
      8 C         138.5741  138.4557  161.9405 C.3     1  UNL1        0.0976
      9 C         139.0761  142.5993  157.2257 C.ar    1  UNL1        0.2501
     10 N         139.7612  141.4032  156.6342 N.ar    1  UNL1       -0.1068
     11 N         139.4891  140.2263  157.5235 N.ar    1  UNL1       -0.1021
     12 C         138.6358  140.6950  158.6647 C.ar    1  UNL1        0.3042
     13 O         138.3806  142.1617  158.4806 O.2     1  UNL1       -0.4122
     14 C         139.1027  146.7687  155.5329 C.ar    1  UNL1        0.1387
     15 C         138.0674  145.7821  155.0804 C.ar    1  UNL1        0.0371
     16 C         138.0585  144.3923  155.6447 C.ar    1  UNL1        0.0078
     17 C         139.0850  143.9891  156.6614 C.ar    1  UNL1        0.0553
     18 C         140.1203  144.9757  157.1139 C.ar    1  UNL1        0.0078
     19 C         140.1292  146.3655  156.5496 C.ar    1  UNL1        0.0371
     20 C         140.1822  148.5684  154.0013 C.3     1  UNL1        0.2525
     21 O         139.1116  148.1585  154.9686 O.3     1  UNL1       -0.4714
     22 O         141.9499  137.6789  163.8771 O.3     1  UNL1       -0.4775
     23 C         142.0931  138.3599  165.2059 C.ar    1  UNL1        0.1574
     24 C         141.0238  139.2944  165.6889 C.ar    1  UNL1        0.0398
     25 C         141.1670  139.9753  167.0177 C.ar    1  UNL1        0.0193
     26 C         142.3796  139.7219  167.8635 C.ar    1  UNL1        0.0754
     27 N         143.4490  138.7874  167.3805 N.ar    1  UNL1       -0.2436
     28 C         143.3057  138.1064  166.0517 C.ar    1  UNL1        0.1352
     29 C         142.5228  140.4030  169.1923 C.3     1  UNL1        0.1186
     30 N         141.5750  141.4991  169.5794 N.3     1  UNL1       -0.2677
     31 C         141.5652  142.8929  169.0252 C.3     1  UNL1        0.0725
     32 C         140.4546  143.6491  169.6919 C.3     1  UNL1        0.0188
     33 C         139.7778  142.7227  170.6583 C.3     1  UNL1        0.0188
     34 C         140.4703  141.3939  170.5887 C.3     1  UNL1        0.0725
@<TRIPOS>BOND
     1    20    21    1
     2    21    14    1
     3    14    15   ar
     4    15    16   ar
     5    16    17   ar
     6    17     9    1
     7     9    10   ar
     8    10    11   ar
     9    11    12   ar
    10    12     1    1
    11     1     2    2
    12     1     3   am
    13     3     4    1
    14     4     5    1
    15     5     6    1
    16     6    22    1
    17    22    23    1
    18    23    24   ar
    19    24    25   ar
    20    25    26   ar
    21    26    29    1
    22    29    30    1
    23    30    31    1
    24    31    32    1
    25    32    33    1
    26    33    34    1
    27    26    27   ar
    28    27    28   ar
    29     6     7    1
    30     7     8    1
    31    12    13   ar
    32    17    18   ar
    33    18    19   ar
    34    19    14   ar
    35    13     9   ar
    36     8     3    1
    37    28    23   ar
    38    34    30    1
