@<TRIPOS>MOLECULE
*****
 34 38 0 0 0
SMALL
GASTEIGER

@<TRIPOS>ATOM
      1 C         140.4978  140.0671  166.8966 C.2     1  UNL1        0.3330
      2 N         141.5699  140.3178  165.8779 N.2     1  UNL1       -0.0042
      3 C         142.7943  141.0983  166.2542 C.2     1  UNL1        0.3056
      4 C         142.9467  141.6280  167.6492 C.3     1  UNL1        0.1439
      5 C         141.8746  141.3773  168.6680 C.2     1  UNL1        0.0029
      6 C         142.0270  141.9070  170.0630 C.2     1  UNL1        0.0146
      7 C         140.9550  141.6562  171.0817 C.2     1  UNL1        0.0886
      8 N         139.7305  140.8758  170.7054 N.am    1  UNL1       -0.1739
      9 C         139.5781  140.3461  169.3104 C.2     1  UNL1        0.2759
     10 O         138.3537  139.5656  168.9340 O.2     1  UNL1       -0.2678
     11 C         140.6502  140.5968  168.2917 C.2     1  UNL1        0.1344
     12 N         139.2734  139.2866  166.5202 N.pl3   1  UNL1       -0.1986
     13 H         138.7246  138.8641  167.2199 H       1  UNL1        0.2985
     14 C         137.4723  144.0127  163.4372 C.3     1  UNL1        0.1538
     15 N         137.7732  142.5443  163.4955 N.ar    1  UNL1       -0.2473
     16 C         138.2642  141.7919  164.6966 C.ar    1  UNL1        0.1000
     17 C         138.4303  140.3531  164.3063 C.ar    1  UNL1        0.0749
     18 C         138.8851  139.1499  165.0779 C.ar    1  UNL1        0.1385
     19 C         138.9514  137.8098  164.4071 C.ar    1  UNL1        0.0403
     20 C         138.5631  137.6731  162.9647 C.ar    1  UNL1        0.0051
     21 C         138.1084  138.8763  162.1931 C.ar    1  UNL1        0.0211
     22 C         138.0420  140.2163  162.8638 C.ar    1  UNL1        0.1057
     23 N         137.6359  141.5706  162.3628 N.ar    1  UNL1       -0.1691
     24 N         143.8664  141.3490  165.2354 N.pl3   1  UNL1       -0.2241
     25 H         144.6919  140.8126  165.2473 H       1  UNL1        0.2918
     26 C         143.6808  142.4169  164.1986 C.3     1  UNL1        0.1755
     27 C         142.4238  143.2353  164.1815 C.3     1  UNL1        0.0799
     28 C         142.2381  144.3032  163.1447 C.3     1  UNL1        0.1464
     29 O         143.3095  144.5528  162.1249 O.3     1  UNL1       -0.3521
     30 C         144.5665  143.7344  162.1420 C.3     1  UNL1        0.1616
     31 C         144.7521  142.6665  163.1789 C.3     1  UNL1        0.1239
     32 N         146.0091  141.8481  163.1960 N.3     1  UNL1       -0.3170
     33 H         146.6218  142.1503  162.4386 H       1  UNL1        0.1190
     34 H         145.7752  140.8631  163.0716 H       1  UNL1        0.1190
@<TRIPOS>BOND
     1    14    15    1
     2    15    16   ar
     3    16    17   ar
     4    17    18   ar
     5    18    12    1
     6    12     1    1
     7     1     2    1
     8     2     3    2
     9     3    24    1
    10    26    24    1
    11    26    27    1
    12    27    28    1
    13    28    29    1
    14    29    30    1
    15    30    31    1
    16    31    32    1
    17     3     4    1
    18     4     5    1
    19     5     6    2
    20     6     7    1
    21     7     8    2
    22     8     9    1
    23     9    10    2
    24     9    11    1
    25    18    19   ar
    26    19    20   ar
    27    20    21   ar
    28    21    22   ar
    29    22    23   ar
    30    23    15   ar
    31    22    17   ar
    32    11     1    2
    33    31    26    1
    34    11     5    1
    35    12    13    1
    36    24    25    1
    37    32    33    1
    38    32    34    1
@<TRIPOS>MOLECULE
*****
 34 38 0 0 0
SMALL
GASTEIGER

@<TRIPOS>ATOM
      1 C         141.4806  142.0195  166.4448 C.2     1  UNL1        0.3330
      2 N         140.2939  141.6050  165.6263 N.2     1  UNL1       -0.0042
      3 C         139.3465  140.5672  166.1510 C.2     1  UNL1        0.3056
      4 C         139.5857  139.9439  167.4942 C.3     1  UNL1        0.1439
      5 C         140.7724  140.3584  168.3128 C.2     1  UNL1        0.0029
      6 C         141.0115  139.7352  169.6560 C.2     1  UNL1        0.0146
      7 C         142.1982  140.1497  170.4745 C.2     1  UNL1        0.0886
      8 N         143.1457  141.1875  169.9498 N.am    1  UNL1       -0.1739
      9 C         142.9065  141.8107  168.6066 C.2     1  UNL1        0.2759
     10 O         143.8539  142.8485  168.0818 O.2     1  UNL1       -0.2678
     11 C         141.7198  141.3962  167.7881 C.2     1  UNL1        0.1344
     12 N         142.4280  143.0573  165.9200 N.pl3   1  UNL1       -0.1986
     13 H         142.5323  143.9135  166.3946 H       1  UNL1        0.2985
     14 C         140.7359  145.3896  160.7449 C.3     1  UNL1        0.1538
     15 N         141.6961  144.5478  161.5320 N.ar    1  UNL1       -0.2473
     16 C         141.6225  144.2689  163.0040 C.ar    1  UNL1        0.1000
     17 C         142.7794  143.3860  163.3669 C.ar    1  UNL1        0.0749
     18 C         143.2167  142.7904  164.6724 C.ar    1  UNL1        0.1385
     19 C         144.4427  141.9280  164.7301 C.ar    1  UNL1        0.0403
     20 C         145.2314  141.6612  163.4824 C.ar    1  UNL1        0.0051
     21 C         144.7941  142.2567  162.1770 C.ar    1  UNL1        0.0211
     22 C         143.5682  143.1191  162.1192 C.ar    1  UNL1        0.1057
     23 N         142.8986  143.8372  160.9852 N.ar    1  UNL1       -0.1691
     24 N         138.1598  140.1527  165.3324 N.pl3   1  UNL1       -0.2241
     25 H         137.2501  140.2682  165.6907 H       1  UNL1        0.2918
     26 C         138.3591  139.5622  163.9680 C.3     1  UNL1        0.1755
     27 C         139.2434  138.3635  163.7914 C.3     1  UNL1        0.0799
     28 C         139.4427  137.7731  162.4271 C.3     1  UNL1        0.1464
     29 O         138.7578  138.3813  161.2392 O.3     1  UNL1       -0.3521
     30 C         137.8735  139.5800  161.4158 C.3     1  UNL1        0.1616
     31 C         137.6742  140.1705  162.7802 C.3     1  UNL1        0.1239
     32 N         136.7899  141.3692  162.9568 N.3     1  UNL1       -0.3170
     33 H         136.4098  141.6475  162.0522 H       1  UNL1        0.1190
     34 H         137.3338  142.1382  163.3482 H       1  UNL1        0.1190
@<TRIPOS>BOND
     1    14    15    1
     2    15    16   ar
     3    16    17   ar
     4    17    18   ar
     5    18    12    1
     6    12     1    1
     7     1     2    1
     8     2     3    2
     9     3    24    1
    10    26    24    1
    11    26    27    1
    12    27    28    1
    13    28    29    1
    14    29    30    1
    15    30    31    1
    16    31    32    1
    17     3     4    1
    18     4     5    1
    19     5     6    2
    20     6     7    1
    21     7     8    2
    22     8     9    1
    23     9    10    2
    24     9    11    1
    25    18    19   ar
    26    19    20   ar
    27    20    21   ar
    28    21    22   ar
    29    22    23   ar
    30    23    15   ar
    31    22    17   ar
    32    11     1    2
    33    31    26    1
    34    11     5    1
    35    12    13    1
    36    24    25    1
    37    32    33    1
    38    32    34    1
@<TRIPOS>MOLECULE
*****
 34 38 0 0 0
SMALL
GASTEIGER

@<TRIPOS>ATOM
      1 C         141.4450  139.0065  165.5694 C.2     1  UNL1        0.3330
      2 N         140.1836  139.4030  164.8611 N.2     1  UNL1       -0.0042
      3 C         139.0763  140.0727  165.6196 C.2     1  UNL1        0.3056
      4 C         139.2304  140.3460  167.0863 C.3     1  UNL1        0.1439
      5 C         140.4918  139.9496  167.7947 C.2     1  UNL1        0.0029
      6 C         140.6459  140.2229  169.2615 C.2     1  UNL1        0.0146
      7 C         141.9072  139.8264  169.9698 C.2     1  UNL1        0.0886
      8 N         143.0145  139.1566  169.2113 N.am    1  UNL1       -0.1739
      9 C         142.8605  138.8833  167.7445 C.2     1  UNL1        0.2759
     10 O         143.9678  138.2135  166.9860 O.2     1  UNL1       -0.2678
     11 C         141.5991  139.2798  167.0362 C.2     1  UNL1        0.1344
     12 N         142.5523  138.3367  164.8109 N.pl3   1  UNL1       -0.1986
     13 H         142.8617  137.4415  165.0796 H       1  UNL1        0.2985
     14 C         144.7381  143.8102  165.4008 C.3     1  UNL1        0.1538
     15 N         144.4697  142.6103  164.5416 N.ar    1  UNL1       -0.2473
     16 C         143.7974  141.3435  164.9813 C.ar    1  UNL1        0.1000
     17 C         143.7386  140.4169  163.8032 C.ar    1  UNL1        0.0749
     18 C         143.1881  139.0308  163.6430 C.ar    1  UNL1        0.1385
     19 C         143.2736  138.3387  162.3149 C.ar    1  UNL1        0.0403
     20 C         143.9095  139.0328  161.1471 C.ar    1  UNL1        0.0051
     21 C         144.4599  140.4189  161.3073 C.ar    1  UNL1        0.0211
     22 C         144.3745  141.1110  162.6353 C.ar    1  UNL1        0.1057
     23 N         144.8263  142.4666  163.0917 N.ar    1  UNL1       -0.1691
     24 N         137.8149  140.4692  164.9112 N.pl3   1  UNL1       -0.2241
     25 H         136.9575  140.0573  165.1650 H       1  UNL1        0.2918
     26 C         137.8599  141.4933  163.8161 C.3     1  UNL1        0.1755
     27 C         137.7022  142.9486  164.1433 C.3     1  UNL1        0.0799
     28 C         137.7472  143.9727  163.0482 C.3     1  UNL1        0.1464
     29 O         137.9498  143.5414  161.6258 O.3     1  UNL1       -0.3521
     30 C         138.1075  142.0860  161.2987 C.3     1  UNL1        0.1616
     31 C         138.0625  141.0619  162.3938 C.3     1  UNL1        0.1239
     32 N         138.2202  139.6066  162.0667 N.3     1  UNL1       -0.3170
     33 H         138.3476  139.4961  161.0607 H       1  UNL1        0.1190
     34 H         137.3857  139.0995  162.3614 H       1  UNL1        0.1190
@<TRIPOS>BOND
     1    14    15    1
     2    15    16   ar
     3    16    17   ar
     4    17    18   ar
     5    18    12    1
     6    12     1    1
     7     1     2    1
     8     2     3    2
     9     3    24    1
    10    26    24    1
    11    26    27    1
    12    27    28    1
    13    28    29    1
    14    29    30    1
    15    30    31    1
    16    31    32    1
    17     3     4    1
    18     4     5    1
    19     5     6    2
    20     6     7    1
    21     7     8    2
    22     8     9    1
    23     9    10    2
    24     9    11    1
    25    18    19   ar
    26    19    20   ar
    27    20    21   ar
    28    21    22   ar
    29    22    23   ar
    30    23    15   ar
    31    22    17   ar
    32    11     1    2
    33    31    26    1
    34    11     5    1
    35    12    13    1
    36    24    25    1
    37    32    33    1
    38    32    34    1
@<TRIPOS>MOLECULE
*****
 34 38 0 0 0
SMALL
GASTEIGER

@<TRIPOS>ATOM
      1 C         140.2203  138.7934  165.6412 C.2     1  UNL1        0.3330
      2 N         141.5225  138.7008  164.9026 N.2     1  UNL1       -0.0042
      3 C         142.7916  139.1559  165.5600 C.2     1  UNL1        0.3056
      4 C         142.7585  139.7035  166.9561 C.3     1  UNL1        0.1439
      5 C         141.4563  139.7961  167.6948 C.2     1  UNL1        0.0029
      6 C         141.4232  140.3437  169.0908 C.2     1  UNL1        0.0146
      7 C         140.1210  140.4363  169.8294 C.2     1  UNL1        0.0886
      8 N         138.8518  139.9812  169.1720 N.am    1  UNL1       -0.1739
      9 C         138.8849  139.4336  167.7760 C.2     1  UNL1        0.2759
     10 O         137.6158  138.9786  167.1186 O.2     1  UNL1       -0.2678
     11 C         140.1871  139.3410  167.0374 C.2     1  UNL1        0.1344
     12 N         138.9511  138.3383  164.9838 N.pl3   1  UNL1       -0.1986
     13 H         138.4004  137.6405  165.4068 H       1  UNL1        0.2985
     14 C         137.6843  144.1146  164.6445 C.3     1  UNL1        0.1538
     15 N         137.8037  142.7754  163.9794 N.ar    1  UNL1       -0.2473
     16 C         138.2219  141.4961  164.6418 C.ar    1  UNL1        0.1000
     17 C         138.2025  140.4105  163.6069 C.ar    1  UNL1        0.0749
     18 C         138.5210  138.9466  163.6819 C.ar    1  UNL1        0.1385
     19 C         138.4093  138.0909  162.4549 C.ar    1  UNL1        0.0403
     20 C         137.9792  138.6992  161.1530 C.ar    1  UNL1        0.0051
     21 C         137.6607  140.1630  161.0780 C.ar    1  UNL1        0.0211
     22 C         137.7724  141.0187  162.3049 C.ar    1  UNL1        0.1057
     23 N         137.5259  142.4803  162.5352 N.ar    1  UNL1       -0.1691
     24 N         144.0939  139.0633  164.8213 N.pl3   1  UNL1       -0.2241
     25 H         144.7885  138.4352  165.1250 H       1  UNL1        0.2918
     26 C         144.3378  139.9277  163.6200 C.3     1  UNL1        0.1755
     27 C         145.0527  141.2377  163.7713 C.3     1  UNL1        0.0799
     28 C         145.2966  142.1022  162.5700 C.3     1  UNL1        0.1464
     29 O         144.8257  141.6567  161.2173 O.3     1  UNL1       -0.3521
     30 C         144.1108  140.3467  161.0660 C.3     1  UNL1        0.1616
     31 C         143.8669  139.4822  162.2674 C.3     1  UNL1        0.1239
     32 N         143.1520  138.1722  162.1161 N.3     1  UNL1       -0.3170
     33 H         142.9059  138.0304  161.1364 H       1  UNL1        0.1190
     34 H         142.3034  138.1806  162.6820 H       1  UNL1        0.1190
@<TRIPOS>BOND
     1    14    15    1
     2    15    16   ar
     3    16    17   ar
     4    17    18   ar
     5    18    12    1
     6    12     1    1
     7     1     2    1
     8     2     3    2
     9     3    24    1
    10    26    24    1
    11    26    27    1
    12    27    28    1
    13    28    29    1
    14    29    30    1
    15    30    31    1
    16    31    32    1
    17     3     4    1
    18     4     5    1
    19     5     6    2
    20     6     7    1
    21     7     8    2
    22     8     9    1
    23     9    10    2
    24     9    11    1
    25    18    19   ar
    26    19    20   ar
    27    20    21   ar
    28    21    22   ar
    29    22    23   ar
    30    23    15   ar
    31    22    17   ar
    32    11     1    2
    33    31    26    1
    34    11     5    1
    35    12    13    1
    36    24    25    1
    37    32    33    1
    38    32    34    1
@<TRIPOS>MOLECULE
*****
 34 38 0 0 0
SMALL
GASTEIGER

@<TRIPOS>ATOM
      1 C         141.4999  139.2775  165.5494 C.2     1  UNL1        0.3330
      2 N         140.2409  139.7247  164.8677 N.2     1  UNL1       -0.0042
      3 C         139.0984  140.2602  165.6788 C.2     1  UNL1        0.3056
      4 C         139.2150  140.3487  167.1717 C.3     1  UNL1        0.1439
      5 C         140.4742  139.9015  167.8534 C.2     1  UNL1        0.0029
      6 C         140.5908  139.9899  169.3462 C.2     1  UNL1        0.0146
      7 C         141.8499  139.5428  170.0279 C.2     1  UNL1        0.0886
      8 N         142.9923  139.0072  169.2167 N.am    1  UNL1       -0.1739
      9 C         142.8757  138.9188  167.7239 C.2     1  UNL1        0.2759
     10 O         144.0182  138.3833  166.9128 O.2     1  UNL1       -0.2678
     11 C         141.6166  139.3660  167.0423 C.2     1  UNL1        0.1344
     12 N         142.6424  138.7420  164.7382 N.pl3   1  UNL1       -0.1986
     13 H         142.8876  137.7906  164.8014 H       1  UNL1        0.2985
     14 C         142.6516  137.8449  158.8833 C.3     1  UNL1        0.1538
     15 N         143.1005  138.6452  160.0699 N.ar    1  UNL1       -0.2473
     16 C         142.7424  138.3762  161.5014 C.ar    1  UNL1        0.1000
     17 C         143.4069  139.4198  162.3495 C.ar    1  UNL1        0.0749
     18 C         143.4113  139.6559  163.8308 C.ar    1  UNL1        0.1385
     19 C         144.1846  140.8061  164.4047 C.ar    1  UNL1        0.0403
     20 C         144.9535  141.7200  163.4972 C.ar    1  UNL1        0.0051
     21 C         144.9491  141.4839  162.0159 C.ar    1  UNL1        0.0211
     22 C         144.1759  140.3338  161.4421 C.ar    1  UNL1        0.1057
     23 N         143.9865  139.8551  160.0332 N.ar    1  UNL1       -0.1691
     24 N         137.8392  140.7074  164.9971 N.pl3   1  UNL1       -0.2241
     25 H         136.9780  140.2924  165.2324 H       1  UNL1        0.2918
     26 C         137.8923  141.7868  163.9569 C.3     1  UNL1        0.1755
     27 C         138.0397  143.2209  164.3710 C.3     1  UNL1        0.0799
     28 C         138.0927  144.3003  163.3308 C.3     1  UNL1        0.1464
     29 O         137.9983  143.9456  161.8764 O.3     1  UNL1       -0.3521
     30 C         137.8509  142.5114  161.4622 C.3     1  UNL1        0.1616
     31 C         137.7979  141.4320  162.5025 C.3     1  UNL1        0.1239
     32 N         137.6504  139.9979  162.0884 N.3     1  UNL1       -0.3170
     33 H         137.6017  139.9410  161.0711 H       1  UNL1        0.1190
     34 H         136.7960  139.6136  162.4917 H       1  UNL1        0.1190
@<TRIPOS>BOND
     1    14    15    1
     2    15    16   ar
     3    16    17   ar
     4    17    18   ar
     5    18    12    1
     6    12     1    1
     7     1     2    1
     8     2     3    2
     9     3    24    1
    10    26    24    1
    11    26    27    1
    12    27    28    1
    13    28    29    1
    14    29    30    1
    15    30    31    1
    16    31    32    1
    17     3     4    1
    18     4     5    1
    19     5     6    2
    20     6     7    1
    21     7     8    2
    22     8     9    1
    23     9    10    2
    24     9    11    1
    25    18    19   ar
    26    19    20   ar
    27    20    21   ar
    28    21    22   ar
    29    22    23   ar
    30    23    15   ar
    31    22    17   ar
    32    11     1    2
    33    31    26    1
    34    11     5    1
    35    12    13    1
    36    24    25    1
    37    32    33    1
    38    32    34    1
@<TRIPOS>MOLECULE
*****
 34 38 0 0 0
SMALL
GASTEIGER

@<TRIPOS>ATOM
      1 C         141.6620  139.8532  166.5588 C.2     1  UNL1        0.3330
      2 N         140.9333  139.1441  165.4561 N.2     1  UNL1       -0.0042
      3 C         139.4847  138.7909  165.6202 C.2     1  UNL1        0.3056
      4 C         138.7649  139.1469  166.8871 C.3     1  UNL1        0.1439
      5 C         139.4936  139.8560  167.9899 C.2     1  UNL1        0.0029
      6 C         138.7738  140.2120  169.2568 C.2     1  UNL1        0.0146
      7 C         139.5025  140.9211  170.3596 C.2     1  UNL1        0.0886
      8 N         140.9510  141.2742  170.1954 N.am    1  UNL1       -0.1739
      9 C         141.6709  140.9183  168.9285 C.2     1  UNL1        0.2759
     10 O         143.1194  141.2714  168.7644 O.2     1  UNL1       -0.2678
     11 C         140.9422  140.2092  167.8258 C.2     1  UNL1        0.1344
     12 N         143.1106  140.2063  166.3946 N.pl3   1  UNL1       -0.1986
     13 H         143.7879  139.7881  166.9739 H       1  UNL1        0.2985
     14 C         144.0678  138.4537  160.8182 C.3     1  UNL1        0.1538
     15 N         144.0313  139.5502  161.8412 N.ar    1  UNL1       -0.2473
     16 C         143.6729  139.3934  163.2892 C.ar    1  UNL1        0.1000
     17 C         143.7670  140.7423  163.9387 C.ar    1  UNL1        0.0749
     18 C         143.5271  141.1967  165.3479 C.ar    1  UNL1        0.1385
     19 C         143.7039  142.6415  165.7104 C.ar    1  UNL1        0.0403
     20 C         144.1205  143.6318  164.6637 C.ar    1  UNL1        0.0051
     21 C         144.3603  143.1774  163.2545 C.ar    1  UNL1        0.0211
     22 C         144.1836  141.7327  162.8919 C.ar    1  UNL1        0.1057
     23 N         144.3469  140.9959  161.5956 N.ar    1  UNL1       -0.1691
     24 N         138.7560  138.0818  164.5174 N.pl3   1  UNL1       -0.2241
     25 H         138.1450  137.3394  164.7290 H       1  UNL1        0.2918
     26 C         138.9581  138.5038  163.0923 C.3     1  UNL1        0.1755
     27 C         138.0180  139.4874  162.4608 C.3     1  UNL1        0.0799
     28 C         138.2201  139.9094  161.0357 C.3     1  UNL1        0.1464
     29 O         139.3625  139.3479  160.2420 O.3     1  UNL1       -0.3521
     30 C         140.3027  138.3644  160.8735 C.3     1  UNL1        0.1616
     31 C         140.1004  137.9424  162.2987 C.3     1  UNL1        0.1239
     32 N         141.0406  136.9589  162.9302 N.3     1  UNL1       -0.3170
     33 H         141.7514  136.6843  162.2521 H       1  UNL1        0.1190
     34 H         140.5197  136.1345  163.2294 H       1  UNL1        0.1190
@<TRIPOS>BOND
     1    14    15    1
     2    15    16   ar
     3    16    17   ar
     4    17    18   ar
     5    18    12    1
     6    12     1    1
     7     1     2    1
     8     2     3    2
     9     3    24    1
    10    26    24    1
    11    26    27    1
    12    27    28    1
    13    28    29    1
    14    29    30    1
    15    30    31    1
    16    31    32    1
    17     3     4    1
    18     4     5    1
    19     5     6    2
    20     6     7    1
    21     7     8    2
    22     8     9    1
    23     9    10    2
    24     9    11    1
    25    18    19   ar
    26    19    20   ar
    27    20    21   ar
    28    21    22   ar
    29    22    23   ar
    30    23    15   ar
    31    22    17   ar
    32    11     1    2
    33    31    26    1
    34    11     5    1
    35    12    13    1
    36    24    25    1
    37    32    33    1
    38    32    34    1
@<TRIPOS>MOLECULE
*****
 34 38 0 0 0
SMALL
GASTEIGER

@<TRIPOS>ATOM
      1 C         141.4973  139.9152  165.4495 C.2     1  UNL1        0.3330
      2 N         142.2375  139.3894  164.2554 N.2     1  UNL1       -0.0042
      3 C         141.7097  138.1995  163.5101 C.2     1  UNL1        0.3056
      4 C         140.4418  137.5354  163.9587 C.3     1  UNL1        0.1439
      5 C         139.7016  138.0611  165.1527 C.2     1  UNL1        0.0029
      6 C         138.4337  137.3970  165.6014 C.2     1  UNL1        0.0146
      7 C         137.6936  137.9227  166.7954 C.2     1  UNL1        0.0886
      8 N         138.2213  139.1126  167.5408 N.am    1  UNL1       -0.1739
      9 C         139.4892  139.7768  167.0922 C.2     1  UNL1        0.2759
     10 O         140.0169  140.9667  167.8375 O.2     1  UNL1       -0.2678
     11 C         140.2293  139.2510  165.8981 C.2     1  UNL1        0.1344
     12 N         142.0250  141.1051  166.1949 N.pl3   1  UNL1       -0.1986
     13 H         142.1379  141.0634  167.1720 H       1  UNL1        0.2985
     14 C         137.8393  144.2218  163.3929 C.3     1  UNL1        0.1538
     15 N         139.2777  144.0426  163.7792 N.ar    1  UNL1       -0.2473
     16 C         139.8353  142.9233  164.6077 C.ar    1  UNL1        0.1000
     17 C         141.3131  143.1402  164.7453 C.ar    1  UNL1        0.0749
     18 C         142.3808  142.3584  165.4515 C.ar    1  UNL1        0.1385
     19 C         143.8043  142.8299  165.4144 C.ar    1  UNL1        0.0403
     20 C         144.1601  144.0833  164.6710 C.ar    1  UNL1        0.0051
     21 C         143.0924  144.8651  163.9648 C.ar    1  UNL1        0.0211
     22 C         141.6689  144.3936  164.0020 C.ar    1  UNL1        0.1057
     23 N         140.4109  144.9513  163.4049 N.ar    1  UNL1       -0.1691
     24 N         142.4499  137.6738  162.3160 N.pl3   1  UNL1       -0.2241
     25 H         142.8599  136.7792  162.3456 H       1  UNL1        0.2918
     26 C         142.5655  138.5110  161.0768 C.3     1  UNL1        0.1755
     27 C         141.5847  138.3314  159.9562 C.3     1  UNL1        0.0799
     28 C         141.7002  139.1686  158.7170 C.3     1  UNL1        0.1464
     29 O         142.7965  140.1855  158.5983 O.3     1  UNL1       -0.3521
     30 C         143.7773  140.3651  159.7190 C.3     1  UNL1        0.1616
     31 C         143.6618  139.5278  160.9582 C.3     1  UNL1        0.1239
     32 N         144.6426  139.7074  162.0788 N.3     1  UNL1       -0.3170
     33 H         145.3134  140.4344  161.8302 H       1  UNL1        0.1190
     34 H         145.1367  138.8302  162.2420 H       1  UNL1        0.1190
@<TRIPOS>BOND
     1    14    15    1
     2    15    16   ar
     3    16    17   ar
     4    17    18   ar
     5    18    12    1
     6    12     1    1
     7     1     2    1
     8     2     3    2
     9     3    24    1
    10    26    24    1
    11    26    27    1
    12    27    28    1
    13    28    29    1
    14    29    30    1
    15    30    31    1
    16    31    32    1
    17     3     4    1
    18     4     5    1
    19     5     6    2
    20     6     7    1
    21     7     8    2
    22     8     9    1
    23     9    10    2
    24     9    11    1
    25    18    19   ar
    26    19    20   ar
    27    20    21   ar
    28    21    22   ar
    29    22    23   ar
    30    23    15   ar
    31    22    17   ar
    32    11     1    2
    33    31    26    1
    34    11     5    1
    35    12    13    1
    36    24    25    1
    37    32    33    1
    38    32    34    1
@<TRIPOS>MOLECULE
*****
 34 38 0 0 0
SMALL
GASTEIGER

@<TRIPOS>ATOM
      1 C         141.1104  141.5662  166.8049 C.2     1  UNL1        0.3330
      2 N         141.6723  140.5195  165.8892 N.2     1  UNL1       -0.0042
      3 C         142.5372  139.4257  166.4417 C.2     1  UNL1        0.3056
      4 C         142.8402  139.3785  167.9100 C.3     1  UNL1        0.1439
      5 C         142.2783  140.4252  168.8258 C.2     1  UNL1        0.0029
      6 C         142.5813  140.3781  170.2941 C.2     1  UNL1        0.0146
      7 C         142.0193  141.4248  171.2098 C.2     1  UNL1        0.0886
      8 N         141.1544  142.5187  170.6573 N.am    1  UNL1       -0.1739
      9 C         140.8514  142.5658  169.1890 C.2     1  UNL1        0.2759
     10 O         139.9865  143.6597  168.6364 O.2     1  UNL1       -0.2678
     11 C         141.4133  141.5191  168.2733 C.2     1  UNL1        0.1344
     12 N         140.2454  142.6601  166.2523 N.pl3   1  UNL1       -0.1986
     13 H         140.2966  143.5672  166.6316 H       1  UNL1        0.2985
     14 C         139.6983  146.4761  161.7552 C.3     1  UNL1        0.1538
     15 N         139.3051  145.1861  162.4120 N.ar    1  UNL1       -0.2473
     16 C         139.8369  144.6610  163.7126 C.ar    1  UNL1        0.1000
     17 C         139.1716  143.3451  163.9879 C.ar    1  UNL1        0.0749
     18 C         139.3026  142.3720  165.1219 C.ar    1  UNL1        0.1385
     19 C         138.4906  141.1107  165.1254 C.ar    1  UNL1        0.0403
     20 C         137.5477  140.8226  163.9950 C.ar    1  UNL1        0.0051
     21 C         137.4167  141.7957  162.8610 C.ar    1  UNL1        0.0211
     22 C         138.2286  143.0569  162.8574 C.ar    1  UNL1        0.1057
     23 N         138.3112  144.1947  161.8835 N.ar    1  UNL1       -0.1691
     24 N         143.0992  138.3789  165.5259 N.pl3   1  UNL1       -0.2241
     25 H         143.3919  137.5123  165.8899 H       1  UNL1        0.2918
     26 C         143.2151  138.6527  164.0557 C.3     1  UNL1        0.1755
     27 C         144.2312  139.6353  163.5536 C.3     1  UNL1        0.0799
     28 C         144.3471  139.9090  162.0834 C.3     1  UNL1        0.1464
     29 O         143.4470  139.2001  161.1152 O.3     1  UNL1       -0.3521
     30 C         142.4309  138.2175  161.6173 C.3     1  UNL1        0.1616
     31 C         142.3150  137.9438  163.0876 C.3     1  UNL1        0.1239
     32 N         141.2990  136.9612  163.5898 N.3     1  UNL1       -0.3170
     33 H         140.7784  136.5774  162.8010 H       1  UNL1        0.1190
     34 H         140.6551  137.4326  164.2250 H       1  UNL1        0.1190
@<TRIPOS>BOND
     1    14    15    1
     2    15    16   ar
     3    16    17   ar
     4    17    18   ar
     5    18    12    1
     6    12     1    1
     7     1     2    1
     8     2     3    2
     9     3    24    1
    10    26    24    1
    11    26    27    1
    12    27    28    1
    13    28    29    1
    14    29    30    1
    15    30    31    1
    16    31    32    1
    17     3     4    1
    18     4     5    1
    19     5     6    2
    20     6     7    1
    21     7     8    2
    22     8     9    1
    23     9    10    2
    24     9    11    1
    25    18    19   ar
    26    19    20   ar
    27    20    21   ar
    28    21    22   ar
    29    22    23   ar
    30    23    15   ar
    31    22    17   ar
    32    11     1    2
    33    31    26    1
    34    11     5    1
    35    12    13    1
    36    24    25    1
    37    32    33    1
    38    32    34    1
@<TRIPOS>MOLECULE
*****
 34 38 0 0 0
SMALL
GASTEIGER

@<TRIPOS>ATOM
      1 C         140.8275  141.0716  166.6079 C.2     1  UNL1        0.3330
      2 N         141.8687  141.8410  165.8503 N.2     1  UNL1       -0.0042
      3 C         143.0686  142.3854  166.5672 C.2     1  UNL1        0.3056
      4 C         143.2274  142.1603  168.0416 C.3     1  UNL1        0.1439
      5 C         142.1862  141.3908  168.7993 C.2     1  UNL1        0.0029
      6 C         142.3450  141.1657  170.2738 C.2     1  UNL1        0.0146
      7 C         141.3039  140.3963  171.0313 C.2     1  UNL1        0.0886
      8 N         140.1040  139.8520  170.3145 N.am    1  UNL1       -0.1739
      9 C         139.9452  140.0771  168.8400 C.2     1  UNL1        0.2759
     10 O         138.7452  139.5327  168.1231 O.2     1  UNL1       -0.2678
     11 C         140.9863  140.8465  168.0824 C.2     1  UNL1        0.1344
     12 N         139.6276  140.5273  165.8910 N.pl3   1  UNL1       -0.1986
     13 H         139.2455  139.6604  166.1589 H       1  UNL1        0.2985
     14 C         139.3600  138.2170  160.4435 C.3     1  UNL1        0.1538
     15 N         139.0758  139.3516  161.3826 N.ar    1  UNL1       -0.2473
     16 C         139.4084  139.3903  162.8447 C.ar    1  UNL1        0.1000
     17 C         138.9473  140.7093  163.3902 C.ar    1  UNL1        0.0749
     18 C         139.0099  141.3037  164.7660 C.ar    1  UNL1        0.1385
     19 C         138.4549  142.6745  165.0168 C.ar    1  UNL1        0.0403
     20 C         137.8373  143.4509  163.8918 C.ar    1  UNL1        0.0051
     21 C         137.7746  142.8566  162.5160 C.ar    1  UNL1        0.0211
     22 C         138.3295  141.4858  162.2652 C.ar    1  UNL1        0.1057
     23 N         138.4090  140.6467  161.0245 N.ar    1  UNL1       -0.1691
     24 N         144.1097  143.1548  165.8095 N.pl3   1  UNL1       -0.2241
     25 H         144.9030  143.5022  166.2778 H       1  UNL1        0.2918
     26 C         143.9422  143.3951  164.3384 C.3     1  UNL1        0.1755
     27 C         142.8856  144.3404  163.8484 C.3     1  UNL1        0.0799
     28 C         142.7180  144.5807  162.3773 C.3     1  UNL1        0.1464
     29 O         143.6071  143.8757  161.3962 O.3     1  UNL1       -0.3521
     30 C         144.6637  142.9304  161.8862 C.3     1  UNL1        0.1616
     31 C         144.8312  142.6901  163.3573 C.3     1  UNL1        0.1239
     32 N         145.8878  141.7448  163.8473 N.3     1  UNL1       -0.3170
     33 H         146.3943  141.3586  163.0507 H       1  UNL1        0.1190
     34 H         145.4497  140.9873  164.3714 H       1  UNL1        0.1190
@<TRIPOS>BOND
     1    14    15    1
     2    15    16   ar
     3    16    17   ar
     4    17    18   ar
     5    18    12    1
     6    12     1    1
     7     1     2    1
     8     2     3    2
     9     3    24    1
    10    26    24    1
    11    26    27    1
    12    27    28    1
    13    28    29    1
    14    29    30    1
    15    30    31    1
    16    31    32    1
    17     3     4    1
    18     4     5    1
    19     5     6    2
    20     6     7    1
    21     7     8    2
    22     8     9    1
    23     9    10    2
    24     9    11    1
    25    18    19   ar
    26    19    20   ar
    27    20    21   ar
    28    21    22   ar
    29    22    23   ar
    30    23    15   ar
    31    22    17   ar
    32    11     1    2
    33    31    26    1
    34    11     5    1
    35    12    13    1
    36    24    25    1
    37    32    33    1
    38    32    34    1
