@<TRIPOS>MOLECULE
*****
 28 31 0 0 0
SMALL
GASTEIGER

@<TRIPOS>ATOM
      1 C         138.2512  139.7875  165.7564 C.3     1  UNL1        0.0310
      2 C         139.3369  140.8216  165.7987 C.ar    1  UNL1       -0.0222
      3 C         139.8008  141.4745  164.5304 C.ar    1  UNL1       -0.0046
      4 C         140.8865  142.5086  164.5727 C.ar    1  UNL1       -0.0036
      5 C         141.5084  142.8898  165.8833 C.ar    1  UNL1       -0.0044
      6 C         141.0447  142.2370  167.1517 C.ar    1  UNL1       -0.0171
      7 C         139.9589  141.2028  167.1094 C.ar    1  UNL1       -0.0083
      8 C         141.3503  143.1615  163.3043 C.2     1  UNL1       -0.0011
      9 C         142.6712  142.7806  162.7043 C.2     1  UNL1        0.0472
     10 C         143.1350  143.4335  161.4360 C.2     1  UNL1        0.2354
     11 N         142.2778  144.4672  160.7677 N.2     1  UNL1       -0.0320
     12 C         140.9569  144.8481  161.3677 C.2     1  UNL1        0.3872
     13 N         139.9042  145.8266  160.9384 N.2     1  UNL1        0.0820
     14 N         138.7898  145.7785  161.9413 N.2     1  UNL1       -0.0337
     15 C         139.1538  144.7703  162.9906 C.2     1  UNL1        0.1921
     16 C         140.4931  144.1952  162.6360 C.3     1  UNL1        0.1845
     17 C         138.3241  144.4017  164.1846 C.3     1  UNL1        0.4355
     18 F         137.4945  144.0331  165.3786 F       1  UNL1       -0.1645
     19 F         138.8910  145.0868  165.2003 F       1  UNL1       -0.1645
     20 F         137.4681  143.5253  163.3192 F       1  UNL1       -0.1645
     21 C         141.6666  142.6182  168.4623 C.3     1  UNL1        0.0877
     22 C         143.0152  142.2240  167.9370 C.3     1  UNL1        0.1498
     23 O         143.6372  142.6052  169.2477 O.3     1  UNL1       -0.3528
     24 C         142.2886  142.9995  169.7730 C.3     1  UNL1        0.1498
     25 C         140.3181  143.0125  168.9876 C.3     1  UNL1        0.0741
     26 N         140.2021  144.0957  170.0187 N.3     1  UNL1       -0.3207
     27 H         140.6399  143.7871  170.8867 H       1  UNL1        0.1189
     28 H         139.2172  144.2996  170.1883 H       1  UNL1        0.1189
@<TRIPOS>BOND
     1     1     2    1
     2     2     3   ar
     3     3     4   ar
     4     4     8    1
     5     8     9    2
     6     9    10    1
     7    10    11    2
     8    11    12    1
     9    12    13    2
    10    13    14    1
    11    14    15    2
    12    15    17    1
    13    17    18    1
    14    17    19    1
    15    17    20    1
    16    15    16    1
    17     4     5   ar
    18     5     6   ar
    19     6    21    1
    20    21    25    1
    21    25    26    1
    22    21    22    1
    23    22    23    1
    24    23    24    1
    25     6     7   ar
    26     7     2   ar
    27    16     8    1
    28    24    21    1
    29    16    12    1
    30    26    27    1
    31    26    28    1
@<TRIPOS>MOLECULE
*****
 28 31 0 0 0
SMALL
GASTEIGER

@<TRIPOS>ATOM
      1 C         138.6048  138.6507  166.0547 C.3     1  UNL1        0.0310
      2 C         139.1921  139.9710  166.4569 C.ar    1  UNL1       -0.0222
      3 C         139.4841  141.0104  165.4155 C.ar    1  UNL1       -0.0046
      4 C         140.0714  142.3307  165.8177 C.ar    1  UNL1       -0.0036
      5 C         140.3668  142.6116  167.2613 C.ar    1  UNL1       -0.0044
      6 C         140.0749  141.5723  168.3026 C.ar    1  UNL1       -0.0171
      7 C         139.4875  140.2519  167.9004 C.ar    1  UNL1       -0.0083
      8 C         140.3634  143.3702  164.7764 C.2     1  UNL1       -0.0011
      9 C         139.2490  144.2014  164.2133 C.2     1  UNL1        0.0472
     10 C         139.5410  145.2408  163.1720 C.2     1  UNL1        0.2354
     11 N         140.9474  145.4490  162.6937 N.2     1  UNL1       -0.0320
     12 C         142.0618  144.6177  163.2568 C.2     1  UNL1        0.3872
     13 N         143.5362  144.5967  162.9816 N.2     1  UNL1        0.0820
     14 N         144.1554  143.5443  163.8528 N.2     1  UNL1       -0.0337
     15 C         143.0638  142.9149  164.6665 C.2     1  UNL1        0.1921
     16 C         141.7698  143.5783  164.2981 C.3     1  UNL1        0.1845
     17 C         143.2358  141.8151  165.6720 C.3     1  UNL1        0.4355
     18 F         143.4078  140.7155  166.6775 F       1  UNL1       -0.1645
     19 F         142.8460  140.7044  165.0112 F       1  UNL1       -0.1645
     20 F         143.7250  142.8129  166.6794 F       1  UNL1       -0.1645
     21 C         140.3703  141.8532  169.7461 C.3     1  UNL1        0.0877
     22 C         140.0858  140.4195  170.0834 C.3     1  UNL1        0.1498
     23 O         140.3812  140.7005  171.5269 O.3     1  UNL1       -0.3528
     24 C         140.6657  142.1341  171.1897 C.3     1  UNL1        0.1498
     25 C         140.6548  143.2868  169.4089 C.3     1  UNL1        0.0741
     26 N         140.1713  144.3805  170.3145 N.3     1  UNL1       -0.3207
     27 H         139.1516  144.4025  170.3066 H       1  UNL1        0.1189
     28 H         140.5332  145.2767  169.9885 H       1  UNL1        0.1189
@<TRIPOS>BOND
     1     1     2    1
     2     2     3   ar
     3     3     4   ar
     4     4     8    1
     5     8     9    2
     6     9    10    1
     7    10    11    2
     8    11    12    1
     9    12    13    2
    10    13    14    1
    11    14    15    2
    12    15    17    1
    13    17    18    1
    14    17    19    1
    15    17    20    1
    16    15    16    1
    17     4     5   ar
    18     5     6   ar
    19     6    21    1
    20    21    25    1
    21    25    26    1
    22    21    22    1
    23    22    23    1
    24    23    24    1
    25     6     7   ar
    26     7     2   ar
    27    16     8    1
    28    24    21    1
    29    16    12    1
    30    26    27    1
    31    26    28    1
@<TRIPOS>MOLECULE
*****
 28 31 0 0 0
SMALL
GASTEIGER

@<TRIPOS>ATOM
      1 C         143.7242  138.6381  165.7768 C.3     1  UNL1        0.0310
      2 C         142.6350  139.5513  166.2559 C.ar    1  UNL1       -0.0222
      3 C         142.0475  140.5708  165.3255 C.ar    1  UNL1       -0.0046
      4 C         140.9583  141.4840  165.8047 C.ar    1  UNL1       -0.0036
      5 C         140.4565  141.3778  167.2143 C.ar    1  UNL1       -0.0044
      6 C         141.0439  140.3584  168.1446 C.ar    1  UNL1       -0.0171
      7 C         142.1331  139.4451  167.6655 C.ar    1  UNL1       -0.0083
      8 C         140.3709  142.5036  164.8743 C.2     1  UNL1       -0.0011
      9 C         141.0118  143.8529  164.7391 C.2     1  UNL1        0.0472
     10 C         140.4244  144.8724  163.8087 C.2     1  UNL1        0.2354
     11 N         139.1960  144.5424  163.0135 N.2     1  UNL1       -0.0320
     12 C         138.5551  143.1930  163.1488 C.2     1  UNL1        0.3872
     13 N         137.3472  142.5859  162.4989 N.2     1  UNL1        0.0820
     14 N         137.1881  141.1912  163.0277 N.2     1  UNL1       -0.0337
     15 C         138.2977  140.9364  164.0043 C.2     1  UNL1        0.1921
     16 C         139.1425  142.1736  164.0791 C.3     1  UNL1        0.1845
     17 C         138.5229  139.6672  164.7714 C.3     1  UNL1        0.4355
     18 F         138.7481  138.3980  165.5385 F       1  UNL1       -0.1645
     19 F         137.7615  139.8139  165.8765 F       1  UNL1       -0.1645
     20 F         139.4509  139.1827  163.6972 F       1  UNL1       -0.1645
     21 C         140.5420  140.2521  169.5542 C.3     1  UNL1        0.0877
     22 C         139.1441  140.0673  169.0426 C.3     1  UNL1        0.1498
     23 O         138.6423  139.9611  170.4522 O.3     1  UNL1       -0.3528
     24 C         140.0402  140.1459  170.9638 C.3     1  UNL1        0.1498
     25 C         141.9399  140.4369  170.0658 C.3     1  UNL1        0.0741
     26 N         142.1818  140.6329  171.5331 N.3     1  UNL1       -0.3207
     27 H         141.7730  141.5190  171.8297 H       1  UNL1        0.1189
     28 H         143.1856  140.6442  171.7137 H       1  UNL1        0.1189
@<TRIPOS>BOND
     1     1     2    1
     2     2     3   ar
     3     3     4   ar
     4     4     8    1
     5     8     9    2
     6     9    10    1
     7    10    11    2
     8    11    12    1
     9    12    13    2
    10    13    14    1
    11    14    15    2
    12    15    17    1
    13    17    18    1
    14    17    19    1
    15    17    20    1
    16    15    16    1
    17     4     5   ar
    18     5     6   ar
    19     6    21    1
    20    21    25    1
    21    25    26    1
    22    21    22    1
    23    22    23    1
    24    23    24    1
    25     6     7   ar
    26     7     2   ar
    27    16     8    1
    28    24    21    1
    29    16    12    1
    30    26    27    1
    31    26    28    1
@<TRIPOS>MOLECULE
*****
 28 31 0 0 0
SMALL
GASTEIGER

@<TRIPOS>ATOM
      1 C         144.2919  139.1079  165.2844 C.3     1  UNL1        0.0310
      2 C         142.9376  139.4986  165.7974 C.ar    1  UNL1       -0.0222
      3 C         141.8622  139.9117  164.8366 C.ar    1  UNL1       -0.0046
      4 C         140.5079  140.3024  165.3496 C.ar    1  UNL1       -0.0036
      5 C         140.2289  140.2800  166.8233 C.ar    1  UNL1       -0.0044
      6 C         141.3042  139.8669  167.7840 C.ar    1  UNL1       -0.0171
      7 C         142.6586  139.4762  167.2710 C.ar    1  UNL1       -0.0083
      8 C         139.4324  140.7155  164.3889 C.2     1  UNL1       -0.0011
      9 C         138.9285  142.1283  164.3894 C.2     1  UNL1        0.0472
     10 C         137.8531  142.5413  163.4287 C.2     1  UNL1        0.2354
     11 N         137.2817  141.5415  162.4675 N.2     1  UNL1       -0.0320
     12 C         137.7857  140.1288  162.4669 C.2     1  UNL1        0.3872
     13 N         137.4163  138.9317  161.6420 N.2     1  UNL1        0.0820
     14 N         138.2635  137.7788  162.0928 N.2     1  UNL1       -0.0337
     15 C         139.1563  138.2633  163.1964 C.2     1  UNL1        0.1921
     16 C         138.8610  139.7157  163.4276 C.3     1  UNL1        0.1845
     17 C         140.1671  137.4401  163.9385 C.3     1  UNL1        0.4355
     18 F         141.1778  136.6169  164.6805 F       1  UNL1       -0.1645
     19 F         139.5972  137.2324  165.1446 F       1  UNL1       -0.1645
     20 F         141.0716  137.4726  162.7425 F       1  UNL1       -0.1645
     21 C         141.0252  139.8445  169.2576 C.3     1  UNL1        0.0877
     22 C         139.5779  140.1321  168.9880 C.3     1  UNL1        0.1498
     23 O         139.2990  140.1097  170.4617 O.3     1  UNL1       -0.3528
     24 C         140.7462  139.8222  170.7313 C.3     1  UNL1        0.1498
     25 C         142.4725  139.5570  169.5272 C.3     1  UNL1        0.0741
     26 N         143.0483  139.8181  170.8875 N.3     1  UNL1       -0.3207
     27 H         143.0356  140.8205  171.0753 H       1  UNL1        0.1189
     28 H         144.0094  139.4780  170.9208 H       1  UNL1        0.1189
@<TRIPOS>BOND
     1     1     2    1
     2     2     3   ar
     3     3     4   ar
     4     4     8    1
     5     8     9    2
     6     9    10    1
     7    10    11    2
     8    11    12    1
     9    12    13    2
    10    13    14    1
    11    14    15    2
    12    15    17    1
    13    17    18    1
    14    17    19    1
    15    17    20    1
    16    15    16    1
    17     4     5   ar
    18     5     6   ar
    19     6    21    1
    20    21    25    1
    21    25    26    1
    22    21    22    1
    23    22    23    1
    24    23    24    1
    25     6     7   ar
    26     7     2   ar
    27    16     8    1
    28    24    21    1
    29    16    12    1
    30    26    27    1
    31    26    28    1
@<TRIPOS>MOLECULE
*****
 28 31 0 0 0
SMALL
GASTEIGER

@<TRIPOS>ATOM
      1 C         144.7900  139.4403  164.7179 C.3     1  UNL1        0.0310
      2 C         143.5822  140.2915  164.9759 C.ar    1  UNL1       -0.0222
      3 C         142.4198  139.7318  165.7413 C.ar    1  UNL1       -0.0046
      4 C         141.2120  140.5831  165.9993 C.ar    1  UNL1       -0.0036
      5 C         141.1665  141.9940  165.4921 C.ar    1  UNL1       -0.0044
      6 C         142.3289  142.5537  164.7268 C.ar    1  UNL1       -0.0171
      7 C         143.5367  141.7024  164.4687 C.ar    1  UNL1       -0.0083
      8 C         140.0496  140.0234  166.7647 C.2     1  UNL1       -0.0011
      9 C         139.0044  139.2143  166.0555 C.2     1  UNL1        0.0472
     10 C         137.8421  138.6546  166.8209 C.2     1  UNL1        0.2354
     11 N         137.7249  138.9042  168.2953 N.2     1  UNL1       -0.0320
     12 C         138.7701  139.7133  169.0044 C.2     1  UNL1        0.3872
     13 N         138.9205  140.1216  170.4399 N.2     1  UNL1        0.0820
     14 N         140.1758  140.9337  170.5618 N.2     1  UNL1       -0.0337
     15 C         140.8012  141.0272  169.2016 C.2     1  UNL1        0.1921
     16 C         139.9324  140.2729  168.2391 C.3     1  UNL1        0.1845
     17 C         142.0723  141.7483  168.8633 C.3     1  UNL1        0.4355
     18 F         143.3433  142.4693  168.5250 F       1  UNL1       -0.1645
     19 F         141.6829  143.0276  168.6786 F       1  UNL1       -0.1645
     20 F         142.8351  140.4631  168.9904 F       1  UNL1       -0.1645
     21 C         142.2834  143.9646  164.2196 C.3     1  UNL1        0.0877
     22 C         143.7594  143.9175  163.9564 C.3     1  UNL1        0.1498
     23 O         143.7139  145.3284  163.4492 O.3     1  UNL1       -0.3528
     24 C         142.2379  145.3755  163.7124 C.3     1  UNL1        0.1498
     25 C         140.8074  144.0116  164.4828 C.3     1  UNL1        0.0741
     26 N         140.0241  145.2450  164.1436 N.3     1  UNL1       -0.3207
     27 H         140.3282  146.0154  164.7389 H       1  UNL1        0.1189
     28 H         139.0308  145.0695  164.2956 H       1  UNL1        0.1189
@<TRIPOS>BOND
     1     1     2    1
     2     2     3   ar
     3     3     4   ar
     4     4     8    1
     5     8     9    2
     6     9    10    1
     7    10    11    2
     8    11    12    1
     9    12    13    2
    10    13    14    1
    11    14    15    2
    12    15    17    1
    13    17    18    1
    14    17    19    1
    15    17    20    1
    16    15    16    1
    17     4     5   ar
    18     5     6   ar
    19     6    21    1
    20    21    25    1
    21    25    26    1
    22    21    22    1
    23    22    23    1
    24    23    24    1
    25     6     7   ar
    26     7     2   ar
    27    16     8    1
    28    24    21    1
    29    16    12    1
    30    26    27    1
    31    26    28    1
@<TRIPOS>MOLECULE
*****
 28 31 0 0 0
SMALL
GASTEIGER

@<TRIPOS>ATOM
      1 C         140.3680  142.6780  169.0499 C.3     1  UNL1        0.0310
      2 C         140.3736  142.1185  167.6583 C.ar    1  UNL1       -0.0222
      3 C         141.0047  142.8945  166.5403 C.ar    1  UNL1       -0.0046
      4 C         141.0102  142.3349  165.1487 C.ar    1  UNL1       -0.0036
      5 C         140.3847  140.9993  164.8748 C.ar    1  UNL1       -0.0044
      6 C         139.7536  140.2233  165.9926 C.ar    1  UNL1       -0.0171
      7 C         139.7481  140.7829  167.3844 C.ar    1  UNL1       -0.0083
      8 C         141.6413  143.1109  164.0308 C.2     1  UNL1       -0.0011
      9 C         143.1107  142.9773  163.7612 C.2     1  UNL1        0.0472
     10 C         143.7417  143.7533  162.6433 C.2     1  UNL1        0.2354
     11 N         142.9032  144.6629  161.7951 N.2     1  UNL1       -0.0320
     12 C         141.4338  144.7965  162.0647 C.2     1  UNL1        0.3872
     13 N         140.3615  145.6091  161.4015 N.2     1  UNL1        0.0820
     14 N         139.0677  145.3354  162.1095 N.2     1  UNL1       -0.0337
     15 C         139.3404  144.3536  163.2103 C.2     1  UNL1        0.1921
     16 C         140.8028  144.0205  163.1825 C.3     1  UNL1        0.1845
     17 C         138.3285  143.8017  164.1702 C.3     1  UNL1        0.4355
     18 F         137.3167  143.2498  165.1302 F       1  UNL1       -0.1645
     19 F         137.8087  142.7382  163.5213 F       1  UNL1       -0.1645
     20 F         138.6716  144.8819  165.1527 F       1  UNL1       -0.1645
     21 C         139.1281  138.8878  165.7188 C.3     1  UNL1        0.0877
     22 C         140.0329  138.7065  164.5361 C.3     1  UNL1        0.1498
     23 O         139.4074  137.3710  164.2623 O.3     1  UNL1       -0.3528
     24 C         138.5026  137.5522  165.4449 C.3     1  UNL1        0.1498
     25 C         138.2234  139.0690  166.9014 C.3     1  UNL1        0.0741
     26 N         137.2485  137.9910  167.2721 N.3     1  UNL1       -0.3207
     27 H         136.5495  137.8967  166.5352 H       1  UNL1        0.1189
     28 H         136.7878  138.2359  168.1485 H       1  UNL1        0.1189
@<TRIPOS>BOND
     1     1     2    1
     2     2     3   ar
     3     3     4   ar
     4     4     8    1
     5     8     9    2
     6     9    10    1
     7    10    11    2
     8    11    12    1
     9    12    13    2
    10    13    14    1
    11    14    15    2
    12    15    17    1
    13    17    18    1
    14    17    19    1
    15    17    20    1
    16    15    16    1
    17     4     5   ar
    18     5     6   ar
    19     6    21    1
    20    21    25    1
    21    25    26    1
    22    21    22    1
    23    22    23    1
    24    23    24    1
    25     6     7   ar
    26     7     2   ar
    27    16     8    1
    28    24    21    1
    29    16    12    1
    30    26    27    1
    31    26    28    1
@<TRIPOS>MOLECULE
*****
 28 31 0 0 0
SMALL
GASTEIGER

@<TRIPOS>ATOM
      1 C         144.5882  140.7740  164.4096 C.3     1  UNL1        0.0310
      2 C         143.3830  141.5521  164.8480 C.ar    1  UNL1       -0.0222
      3 C         142.8310  141.3643  166.2300 C.ar    1  UNL1       -0.0046
      4 C         141.6259  142.1423  166.6684 C.ar    1  UNL1       -0.0036
      5 C         140.9727  143.1083  165.7248 C.ar    1  UNL1       -0.0044
      6 C         141.5247  143.2961  164.3428 C.ar    1  UNL1       -0.0171
      7 C         142.7299  142.5180  163.9043 C.ar    1  UNL1       -0.0083
      8 C         141.0738  141.9545  168.0505 C.2     1  UNL1       -0.0011
      9 C         141.5914  142.7887  169.1846 C.2     1  UNL1        0.0472
     10 C         141.0393  142.6008  170.5666 C.2     1  UNL1        0.2354
     11 N         139.9697  141.5788  170.8144 N.2     1  UNL1       -0.0320
     12 C         139.4521  140.7447  169.6803 C.2     1  UNL1        0.3872
     13 N         138.4100  139.6674  169.6206 N.2     1  UNL1        0.0820
     14 N         138.3180  139.1895  168.2018 N.2     1  UNL1       -0.0337
     15 C         139.3032  139.9714  167.3845 C.2     1  UNL1        0.1921
     16 C         140.0042  140.9325  168.2983 C.3     1  UNL1        0.1845
     17 C         139.5451  139.8189  165.9120 C.3     1  UNL1        0.4355
     18 F         139.7869  139.6665  164.4396 F       1  UNL1       -0.1645
     19 F         140.5430  138.9129  165.8370 F       1  UNL1       -0.1645
     20 F         138.4626  140.8184  165.6308 F       1  UNL1       -0.1645
     21 C         140.8716  144.2620  163.3992 C.3     1  UNL1        0.0877
     22 C         139.5899  144.1487  164.1702 C.3     1  UNL1        0.1498
     23 O         138.9368  145.1146  163.2266 O.3     1  UNL1       -0.3528
     24 C         140.2185  145.2279  162.4555 C.3     1  UNL1        0.1498
     25 C         142.1532  144.3754  162.6281 C.3     1  UNL1        0.0741
     26 N         142.1667  145.0561  161.2915 N.3     1  UNL1       -0.3207
     27 H         141.6156  144.5123  160.6275 H       1  UNL1        0.1189
     28 H         143.1274  145.1289  160.9568 H       1  UNL1        0.1189
@<TRIPOS>BOND
     1     1     2    1
     2     2     3   ar
     3     3     4   ar
     4     4     8    1
     5     8     9    2
     6     9    10    1
     7    10    11    2
     8    11    12    1
     9    12    13    2
    10    13    14    1
    11    14    15    2
    12    15    17    1
    13    17    18    1
    14    17    19    1
    15    17    20    1
    16    15    16    1
    17     4     5   ar
    18     5     6   ar
    19     6    21    1
    20    21    25    1
    21    25    26    1
    22    21    22    1
    23    22    23    1
    24    23    24    1
    25     6     7   ar
    26     7     2   ar
    27    16     8    1
    28    24    21    1
    29    16    12    1
    30    26    27    1
    31    26    28    1
@<TRIPOS>MOLECULE
*****
 28 31 0 0 0
SMALL
GASTEIGER

@<TRIPOS>ATOM
      1 C         143.8772  142.7766  165.8583 C.3     1  UNL1        0.0310
      2 C         142.5452  142.1825  166.2085 C.ar    1  UNL1       -0.0222
      3 C         141.7889  141.3833  165.1890 C.ar    1  UNL1       -0.0046
      4 C         140.4568  140.7893  165.5392 C.ar    1  UNL1       -0.0036
      5 C         139.8810  140.9943  166.9090 C.ar    1  UNL1       -0.0044
      6 C         140.6372  141.7934  167.9286 C.ar    1  UNL1       -0.0171
      7 C         141.9693  142.3875  167.5784 C.ar    1  UNL1       -0.0083
      8 C         139.7006  139.9901  164.5196 C.2     1  UNL1       -0.0011
      9 C         139.8175  138.4948  164.5014 C.2     1  UNL1        0.0472
     10 C         139.0613  137.6958  163.4819 C.2     1  UNL1        0.2354
     11 N         138.1880  138.3920  162.4805 N.2     1  UNL1       -0.0320
     12 C         138.0711  139.8873  162.4987 C.2     1  UNL1        0.3872
     13 N         137.2937  140.8437  161.6438 N.2     1  UNL1        0.0820
     14 N         137.5695  142.2340  162.1350 N.2     1  UNL1       -0.0337
     15 C         138.5173  142.1367  163.2935 C.2     1  UNL1        0.1921
     16 C         138.8273  140.6863  163.5183 C.3     1  UNL1        0.1845
     17 C         139.0599  143.2877  164.0878 C.3     1  UNL1        0.4355
     18 F         139.6025  144.4386  164.8821 F       1  UNL1       -0.1645
     19 F         140.1469  143.6818  163.3910 F       1  UNL1       -0.1645
     20 F         137.9505  143.1233  165.0838 F       1  UNL1       -0.1645
     21 C         140.0614  141.9984  169.2984 C.3     1  UNL1        0.0877
     22 C         140.4126  143.4550  169.2280 C.3     1  UNL1        0.1498
     23 O         139.8368  143.6600  170.5979 O.3     1  UNL1       -0.3528
     24 C         139.4856  142.2034  170.6682 C.3     1  UNL1        0.1498
     25 C         139.7103  140.5417  169.3688 C.3     1  UNL1        0.0741
     26 N         139.4484  139.8967  170.6974 N.3     1  UNL1       -0.3207
     27 H         140.3069  139.8921  171.2483 H       1  UNL1        0.1189
     28 H         139.1317  138.9379  170.5534 H       1  UNL1        0.1189
@<TRIPOS>BOND
     1     1     2    1
     2     2     3   ar
     3     3     4   ar
     4     4     8    1
     5     8     9    2
     6     9    10    1
     7    10    11    2
     8    11    12    1
     9    12    13    2
    10    13    14    1
    11    14    15    2
    12    15    17    1
    13    17    18    1
    14    17    19    1
    15    17    20    1
    16    15    16    1
    17     4     5   ar
    18     5     6   ar
    19     6    21    1
    20    21    25    1
    21    25    26    1
    22    21    22    1
    23    22    23    1
    24    23    24    1
    25     6     7   ar
    26     7     2   ar
    27    16     8    1
    28    24    21    1
    29    16    12    1
    30    26    27    1
    31    26    28    1
@<TRIPOS>MOLECULE
*****
 28 31 0 0 0
SMALL
GASTEIGER

@<TRIPOS>ATOM
      1 C         139.9264  144.7704  163.4295 C.3     1  UNL1        0.0310
      2 C         140.7738  143.8778  164.2869 C.ar    1  UNL1       -0.0222
      3 C         140.3165  143.5092  165.6672 C.ar    1  UNL1       -0.0046
      4 C         141.1638  142.6167  166.5247 C.ar    1  UNL1       -0.0036
      5 C         142.4685  142.0927  166.0020 C.ar    1  UNL1       -0.0044
      6 C         142.9259  142.4613  164.6218 C.ar    1  UNL1       -0.0171
      7 C         142.0785  143.3538  163.7642 C.ar    1  UNL1       -0.0083
      8 C         140.7065  142.2481  167.9050 C.2     1  UNL1       -0.0011
      9 C         141.1502  143.0618  169.0844 C.2     1  UNL1        0.0472
     10 C         140.6929  142.6931  170.4645 C.2     1  UNL1        0.2354
     11 N         139.7919  141.5108  170.6653 N.2     1  UNL1       -0.0320
     12 C         139.3482  140.6972  169.4859 C.2     1  UNL1        0.3872
     13 N         138.4685  139.4873  169.3750 N.2     1  UNL1        0.0820
     14 N         138.3821  139.1082  167.9263 N.2     1  UNL1       -0.0337
     15 C         139.2084  140.0837  167.1418 C.2     1  UNL1        0.1921
     16 C         139.8055  141.0658  168.1058 C.3     1  UNL1        0.1845
     17 C         139.4035  140.0782  165.6546 C.3     1  UNL1        0.4355
     18 F         139.5984  140.0728  164.1673 F       1  UNL1       -0.1645
     19 F         140.5363  139.3660  165.4763 F       1  UNL1       -0.1645
     20 F         138.1548  140.8924  165.4879 F       1  UNL1       -0.1645
     21 C         144.2306  141.9373  164.0991 C.3     1  UNL1        0.0877
     22 C         143.9949  140.6389  164.8123 C.3     1  UNL1        0.1498
     23 O         145.2996  140.1149  164.2896 O.3     1  UNL1       -0.3528
     24 C         145.5353  141.4133  163.5764 C.3     1  UNL1        0.1498
     25 C         144.4663  143.2357  163.3859 C.3     1  UNL1        0.0741
     26 N         145.1038  143.2406  162.0282 N.3     1  UNL1       -0.3207
     27 H         146.0658  142.9099  162.1031 H       1  UNL1        0.1189
     28 H         145.0986  144.1893  161.6535 H       1  UNL1        0.1189
@<TRIPOS>BOND
     1     1     2    1
     2     2     3   ar
     3     3     4   ar
     4     4     8    1
     5     8     9    2
     6     9    10    1
     7    10    11    2
     8    11    12    1
     9    12    13    2
    10    13    14    1
    11    14    15    2
    12    15    17    1
    13    17    18    1
    14    17    19    1
    15    17    20    1
    16    15    16    1
    17     4     5   ar
    18     5     6   ar
    19     6    21    1
    20    21    25    1
    21    25    26    1
    22    21    22    1
    23    22    23    1
    24    23    24    1
    25     6     7   ar
    26     7     2   ar
    27    16     8    1
    28    24    21    1
    29    16    12    1
    30    26    27    1
    31    26    28    1
