@<TRIPOS>MOLECULE
*****
 34 37 0 0 0
SMALL
GASTEIGER

@<TRIPOS>ATOM
      1 N         144.4786  139.3780  162.4703 N.3     1  UNL1       -0.2935
      2 H         145.3297  139.3736  161.9081 H       1  UNL1        0.1236
      3 C         144.9029  139.5654  163.8968 C.3     1  UNL1        0.0956
      4 C         141.8170  140.3447  167.0780 C.ar    1  UNL1        0.0001
      5 C         142.2839  141.4643  166.1958 C.ar    1  UNL1       -0.0003
      6 C         143.3126  141.2046  165.1353 C.ar    1  UNL1       -0.0029
      7 C         143.8743  139.8252  164.9572 C.ar    1  UNL1       -0.0064
      8 C         143.4073  138.7055  165.8395 C.ar    1  UNL1       -0.0029
      9 C         142.3786  138.9653  166.8999 C.ar    1  UNL1       -0.0003
     10 C         140.8286  141.8807  168.9256 C.2     1  UNL1        0.0598
     11 C         140.7883  140.6045  168.1384 C.2     1  UNL1        0.0047
     12 O         138.8460  141.0549  170.3875 O.2     1  UNL1       -0.2681
     13 C         139.8000  142.1405  169.9860 C.2     1  UNL1        0.2679
     14 N         139.7254  143.4860  170.6450 N.am    1  UNL1       -0.1934
     15 O         138.6967  143.7458  171.7054 O.3     1  UNL1       -0.2949
     16 H         140.3515  144.1985  170.3815 H       1  UNL1        0.1825
     17 H         138.1655  142.9460  171.8433 H       1  UNL1        0.2414
     18 C         143.6922  138.1633  162.0752 C.3     1  UNL1        0.0736
     19 C         142.2500  138.2976  161.6853 C.3     1  UNL1        0.0450
     20 C         141.3794  139.3099  162.3690 C.2     1  UNL1       -0.0005
     21 C         141.3061  140.7726  162.0444 C.2     1  UNL1        0.0946
     22 N         140.3107  141.4039  162.9720 N.2     1  UNL1       -0.2481
     23 C         139.7687  140.3314  163.8699 C.2     1  UNL1        0.0631
     24 C         138.7592  140.3661  164.9787 C.3     1  UNL1        0.0717
     25 C         138.4101  139.1067  165.7148 C.2     1  UNL1       -0.0198
     26 C         139.0706  137.8125  165.3421 C.2     1  UNL1       -0.0042
     27 C         140.0802  137.7778  164.2333 C.2     1  UNL1        0.0006
     28 C         140.4292  139.0373  163.4972 C.2     1  UNL1        0.0114
     29 C         142.0906  141.4797  160.9792 C.ar    1  UNL1        0.0986
     30 C         141.4532  141.7846  159.6561 C.ar    1  UNL1        0.0207
     31 C         142.2376  142.4918  158.5909 C.ar    1  UNL1        0.0032
     32 C         143.6594  142.8940  158.8488 C.ar    1  UNL1        0.0207
     33 C         144.2968  142.5890  160.1720 C.ar    1  UNL1        0.0989
     34 N         143.5124  141.8819  161.2371 N.ar    1  UNL1       -0.2423
@<TRIPOS>BOND
     1    12    13    2
     2    13    10    1
     3    10    11    2
     4    11     4    1
     5     4     5   ar
     6     5     6   ar
     7     6     7   ar
     8     7     3    1
     9     3     1    1
    10     1    18    1
    11    18    19    1
    12    19    20    1
    13    20    21    2
    14    21    29    1
    15    29    30   ar
    16    30    31   ar
    17    31    32   ar
    18    32    33   ar
    19    33    34   ar
    20    21    22    1
    21    22    23    2
    22    23    24    1
    23    24    25    1
    24    25    26    2
    25    26    27    1
    26    27    28    2
    27     7     8   ar
    28     8     9   ar
    29    13    14   am
    30    14    15    1
    31     9     4   ar
    32    28    20    1
    33    34    29   ar
    34    28    23    1
    35     1     2    1
    36    14    16    1
    37    15    17    1
@<TRIPOS>MOLECULE
*****
 34 37 0 0 0
SMALL
GASTEIGER

@<TRIPOS>ATOM
      1 N         141.5068  137.1728  162.6123 N.3     1  UNL1       -0.2935
      2 H         140.7220  137.6760  162.1985 H       1  UNL1        0.1236
      3 C         141.2264  137.0661  164.0819 C.3     1  UNL1        0.0956
      4 C         142.2184  140.4996  166.8165 C.ar    1  UNL1        0.0001
      5 C         140.8479  140.3902  166.2168 C.ar    1  UNL1       -0.0003
      6 C         140.5171  139.2457  165.3053 C.ar    1  UNL1       -0.0029
      7 C         141.5570  138.2106  164.9934 C.ar    1  UNL1       -0.0064
      8 C         142.9277  138.3200  165.5931 C.ar    1  UNL1       -0.0029
      9 C         143.2583  139.4645  166.5046 C.ar    1  UNL1       -0.0003
     10 C         141.7439  141.8675  168.9737 C.2     1  UNL1        0.0598
     11 C         142.5491  141.6441  167.7280 C.2     1  UNL1        0.0047
     12 O         141.0364  144.0502  170.1923 O.2     1  UNL1       -0.2681
     13 C         142.0745  143.0119  169.8852 C.2     1  UNL1        0.2679
     14 N         143.4432  143.1182  170.4898 N.am    1  UNL1       -0.1934
     15 O         143.7737  144.2627  171.4013 O.3     1  UNL1       -0.2949
     16 H         144.1246  142.4368  170.2883 H       1  UNL1        0.1825
     17 H         142.9977  144.8375  171.4931 H       1  UNL1        0.2414
     18 C         142.7564  137.8511  162.1345 C.3     1  UNL1        0.0736
     19 C         142.6692  139.1675  161.4205 C.3     1  UNL1        0.0450
     20 C         142.3539  140.4173  162.1877 C.2     1  UNL1       -0.0005
     21 C         141.0304  141.1225  162.2188 C.2     1  UNL1        0.0946
     22 N         141.1654  142.3224  163.1087 N.2     1  UNL1       -0.2481
     23 C         142.5723  142.3588  163.6277 C.2     1  UNL1        0.0631
     24 C         143.2794  143.3119  164.5450 C.3     1  UNL1        0.0717
     25 C         144.7211  143.0876  164.8930 C.2     1  UNL1       -0.0198
     26 C         145.4557  141.9101  164.3238 C.2     1  UNL1       -0.0042
     27 C         144.7486  140.9570  163.4065 C.2     1  UNL1        0.0006
     28 C         143.3069  141.1813  163.0584 C.2     1  UNL1        0.0114
     29 C         139.7898  140.7017  161.4882 C.ar    1  UNL1        0.0986
     30 C         138.8714  139.6826  162.0948 C.ar    1  UNL1        0.0207
     31 C         137.6308  139.2619  161.3642 C.ar    1  UNL1        0.0032
     32 C         137.3085  139.8602  160.0270 C.ar    1  UNL1        0.0207
     33 C         138.2269  140.8792  159.4204 C.ar    1  UNL1        0.0989
     34 N         139.4675  141.3000  160.1510 N.ar    1  UNL1       -0.2423
@<TRIPOS>BOND
     1    12    13    2
     2    13    10    1
     3    10    11    2
     4    11     4    1
     5     4     5   ar
     6     5     6   ar
     7     6     7   ar
     8     7     3    1
     9     3     1    1
    10     1    18    1
    11    18    19    1
    12    19    20    1
    13    20    21    2
    14    21    29    1
    15    29    30   ar
    16    30    31   ar
    17    31    32   ar
    18    32    33   ar
    19    33    34   ar
    20    21    22    1
    21    22    23    2
    22    23    24    1
    23    24    25    1
    24    25    26    2
    25    26    27    1
    26    27    28    2
    27     7     8   ar
    28     8     9   ar
    29    13    14   am
    30    14    15    1
    31     9     4   ar
    32    28    20    1
    33    34    29   ar
    34    28    23    1
    35     1     2    1
    36    14    16    1
    37    15    17    1
@<TRIPOS>MOLECULE
*****
 34 37 0 0 0
SMALL
GASTEIGER

@<TRIPOS>ATOM
      1 N         137.2367  140.6646  162.2625 N.3     1  UNL1       -0.2935
      2 H         136.2530  140.6840  161.9935 H       1  UNL1        0.1236
      3 C         137.3903  141.6165  163.4115 C.3     1  UNL1        0.0956
      4 C         139.9778  140.5068  166.9221 C.ar    1  UNL1        0.0001
      5 C         138.9276  139.5538  166.4334 C.ar    1  UNL1       -0.0003
      6 C         138.0651  139.9236  165.2632 C.ar    1  UNL1       -0.0029
      7 C         138.2528  141.2466  164.5817 C.ar    1  UNL1       -0.0064
      8 C         139.3030  142.1997  165.0704 C.ar    1  UNL1       -0.0029
      9 C         140.1655  141.8298  166.2406 C.ar    1  UNL1       -0.0003
     10 C         141.0060  141.0952  169.2342 C.2     1  UNL1        0.0598
     11 C         140.8403  140.1369  168.0922 C.2     1  UNL1        0.0047
     12 O         141.5095  141.2015  171.7808 O.2     1  UNL1       -0.2681
     13 C         141.8685  140.7253  170.4045 C.2     1  UNL1        0.2679
     14 N         143.0899  139.8794  170.1984 N.am    1  UNL1       -0.1934
     15 O         143.9523  139.5096  171.3687 O.3     1  UNL1       -0.2949
     16 H         143.3256  139.5668  169.2951 H       1  UNL1        0.1825
     17 H         143.5819  139.8953  172.1780 H       1  UNL1        0.2414
     18 C         138.0329  140.8690  161.0078 C.3     1  UNL1        0.0736
     19 C         139.3507  140.1737  160.8340 C.3     1  UNL1        0.0450
     20 C         140.4469  140.3829  161.8364 C.2     1  UNL1       -0.0005
     21 C         141.3017  141.6087  161.9652 C.2     1  UNL1        0.0946
     22 N         142.2638  141.3863  163.0943 N.2     1  UNL1       -0.2481
     23 C         142.0036  140.0230  163.6633 C.2     1  UNL1        0.0631
     24 C         142.6441  139.2662  164.7889 C.3     1  UNL1        0.0717
     25 C         142.1617  137.8893  165.1370 C.2     1  UNL1       -0.0198
     26 C         141.0388  137.2691  164.3596 C.2     1  UNL1       -0.0042
     27 C         140.3983  138.0259  163.2340 C.2     1  UNL1        0.0006
     28 C         140.8807  139.4028  162.8858 C.2     1  UNL1        0.0114
     29 C         141.2104  142.8407  161.1143 C.ar    1  UNL1        0.0986
     30 C         140.3957  144.0124  161.5760 C.ar    1  UNL1        0.0207
     31 C         140.3044  145.2443  160.7252 C.ar    1  UNL1        0.0032
     32 C         141.0278  145.3045  159.4126 C.ar    1  UNL1        0.0207
     33 C         141.8425  144.1328  158.9508 C.ar    1  UNL1        0.0989
     34 N         141.9338  142.9009  159.8017 N.ar    1  UNL1       -0.2423
@<TRIPOS>BOND
     1    12    13    2
     2    13    10    1
     3    10    11    2
     4    11     4    1
     5     4     5   ar
     6     5     6   ar
     7     6     7   ar
     8     7     3    1
     9     3     1    1
    10     1    18    1
    11    18    19    1
    12    19    20    1
    13    20    21    2
    14    21    29    1
    15    29    30   ar
    16    30    31   ar
    17    31    32   ar
    18    32    33   ar
    19    33    34   ar
    20    21    22    1
    21    22    23    2
    22    23    24    1
    23    24    25    1
    24    25    26    2
    25    26    27    1
    26    27    28    2
    27     7     8   ar
    28     8     9   ar
    29    13    14   am
    30    14    15    1
    31     9     4   ar
    32    28    20    1
    33    34    29   ar
    34    28    23    1
    35     1     2    1
    36    14    16    1
    37    15    17    1
@<TRIPOS>MOLECULE
*****
 34 37 0 0 0
SMALL
GASTEIGER

@<TRIPOS>ATOM
      1 N         139.8846  138.9775  160.8091 N.3     1  UNL1       -0.2935
      2 H         139.7216  138.6723  159.8495 H       1  UNL1        0.1236
      3 C         138.5973  138.7760  161.5522 C.3     1  UNL1        0.0956
      4 C         138.5222  139.0663  166.0422 C.ar    1  UNL1        0.0001
      5 C         138.9156  137.7790  165.3803 C.ar    1  UNL1       -0.0003
      6 C         138.9406  137.6821  163.8836 C.ar    1  UNL1       -0.0029
      7 C         138.5723  138.8727  163.0488 C.ar    1  UNL1       -0.0064
      8 C         138.1789  140.1601  163.7108 C.ar    1  UNL1       -0.0029
      9 C         138.1539  140.2568  165.2074 C.ar    1  UNL1       -0.0003
     10 C         139.4059  140.1262  168.2434 C.2     1  UNL1        0.0598
     11 C         138.4972  139.1630  167.5389 C.2     1  UNL1        0.0047
     12 O         138.0875  140.0555  170.4810 O.2     1  UNL1       -0.2681
     13 C         139.3810  140.2230  169.7401 C.2     1  UNL1        0.2679
     14 N         140.6494  140.4873  170.4959 N.am    1  UNL1       -0.1934
     15 O         140.6243  140.5841  171.9926 O.3     1  UNL1       -0.2949
     16 H         141.4983  140.5972  170.0097 H       1  UNL1        0.1825
     17 H         139.7171  140.4529  172.3099 H       1  UNL1        0.2414
     18 C         140.4993  140.3435  160.7306 C.3     1  UNL1        0.0736
     19 C         141.7839  140.6304  161.4500 C.3     1  UNL1        0.0450
     20 C         141.7603  141.0376  162.8935 C.2     1  UNL1       -0.0005
     21 C         141.3678  142.3849  163.4232 C.2     1  UNL1        0.0946
     22 N         141.4900  142.3489  164.9178 N.2     1  UNL1       -0.2481
     23 C         141.9581  140.9793  165.3118 C.2     1  UNL1        0.0631
     24 C         142.2537  140.3655  166.6481 C.3     1  UNL1        0.0717
     25 C         142.7164  138.9412  166.7333 C.2     1  UNL1       -0.0198
     26 C         142.8834  138.1307  165.4822 C.2     1  UNL1       -0.0042
     27 C         142.5878  138.7446  164.1459 C.2     1  UNL1        0.0006
     28 C         142.1251  140.1689  164.0607 C.2     1  UNL1        0.0114
     29 C         140.9300  143.5617  162.6025 C.ar    1  UNL1        0.0986
     30 C         139.7438  144.3743  163.0297 C.ar    1  UNL1        0.0207
     31 C         139.3060  145.5511  162.2090 C.ar    1  UNL1        0.0032
     32 C         140.0543  145.9151  160.9611 C.ar    1  UNL1        0.0207
     33 C         141.2404  145.1025  160.5338 C.ar    1  UNL1        0.0989
     34 N         141.6783  143.9257  161.3546 N.ar    1  UNL1       -0.2423
@<TRIPOS>BOND
     1    12    13    2
     2    13    10    1
     3    10    11    2
     4    11     4    1
     5     4     5   ar
     6     5     6   ar
     7     6     7   ar
     8     7     3    1
     9     3     1    1
    10     1    18    1
    11    18    19    1
    12    19    20    1
    13    20    21    2
    14    21    29    1
    15    29    30   ar
    16    30    31   ar
    17    31    32   ar
    18    32    33   ar
    19    33    34   ar
    20    21    22    1
    21    22    23    2
    22    23    24    1
    23    24    25    1
    24    25    26    2
    25    26    27    1
    26    27    28    2
    27     7     8   ar
    28     8     9   ar
    29    13    14   am
    30    14    15    1
    31     9     4   ar
    32    28    20    1
    33    34    29   ar
    34    28    23    1
    35     1     2    1
    36    14    16    1
    37    15    17    1
@<TRIPOS>MOLECULE
*****
 34 37 0 0 0
SMALL
GASTEIGER

@<TRIPOS>ATOM
      1 N         139.2562  137.8267  162.7445 N.3     1  UNL1       -0.2935
      2 H         139.0865  136.9189  162.3115 H       1  UNL1        0.1236
      3 C         139.6005  137.5639  164.1806 C.3     1  UNL1        0.0956
      4 C         140.5541  140.9963  166.9301 C.ar    1  UNL1        0.0001
      5 C         141.6550  140.3114  166.1757 C.ar    1  UNL1       -0.0003
      6 C         141.3371  139.1673  165.2592 C.ar    1  UNL1       -0.0029
      7 C         139.9184  138.7080  165.0971 C.ar    1  UNL1       -0.0064
      8 C         138.8175  139.3929  165.8515 C.ar    1  UNL1       -0.0029
      9 C         139.1354  140.5370  166.7680 C.ar    1  UNL1       -0.0003
     10 C         141.7946  141.9344  169.0111 C.2     1  UNL1        0.0598
     11 C         140.8720  142.1404  167.8465 C.2     1  UNL1        0.0047
     12 O         141.0631  144.1040  170.2390 O.2     1  UNL1       -0.2681
     13 C         142.1126  143.0785  169.9277 C.2     1  UNL1        0.2679
     14 N         143.4799  143.1971  170.5329 N.am    1  UNL1       -0.1934
     15 O         143.7978  144.3412  171.4494 O.3     1  UNL1       -0.2949
     16 H         144.1688  142.5240  170.3285 H       1  UNL1        0.1825
     17 H         143.0156  144.9070  171.5435 H       1  UNL1        0.2414
     18 C         138.0829  138.6961  162.4017 C.3     1  UNL1        0.0736
     19 C         138.3037  140.0423  161.7779 C.3     1  UNL1        0.0450
     20 C         139.3335  140.9728  162.3471 C.2     1  UNL1       -0.0005
     21 C         140.8041  140.9466  162.0526 C.2     1  UNL1        0.0946
     22 N         141.4529  142.0504  162.8341 N.2     1  UNL1       -0.2481
     23 C         140.3833  142.7587  163.6115 C.2     1  UNL1        0.0631
     24 C         140.4329  143.9240  164.5546 C.3     1  UNL1        0.0717
     25 C         139.1726  144.4233  165.1967 C.2     1  UNL1       -0.0198
     26 C         137.8627  143.7573  164.8956 C.2     1  UNL1       -0.0042
     27 C         137.8132  142.5920  163.9526 C.2     1  UNL1        0.0006
     28 C         139.0735  142.0926  163.3105 C.2     1  UNL1        0.0114
     29 C         141.5031  139.9855  161.1374 C.ar    1  UNL1        0.0986
     30 C         141.5899  140.2768  159.6686 C.ar    1  UNL1        0.0207
     31 C         142.2890  139.3157  158.7534 C.ar    1  UNL1        0.0032
     32 C         142.9012  138.0633  159.3070 C.ar    1  UNL1        0.0207
     33 C         142.8144  137.7720  160.7758 C.ar    1  UNL1        0.0989
     34 N         142.1154  138.7331  161.6911 N.ar    1  UNL1       -0.2423
@<TRIPOS>BOND
     1    12    13    2
     2    13    10    1
     3    10    11    2
     4    11     4    1
     5     4     5   ar
     6     5     6   ar
     7     6     7   ar
     8     7     3    1
     9     3     1    1
    10     1    18    1
    11    18    19    1
    12    19    20    1
    13    20    21    2
    14    21    29    1
    15    29    30   ar
    16    30    31   ar
    17    31    32   ar
    18    32    33   ar
    19    33    34   ar
    20    21    22    1
    21    22    23    2
    22    23    24    1
    23    24    25    1
    24    25    26    2
    25    26    27    1
    26    27    28    2
    27     7     8   ar
    28     8     9   ar
    29    13    14   am
    30    14    15    1
    31     9     4   ar
    32    28    20    1
    33    34    29   ar
    34    28    23    1
    35     1     2    1
    36    14    16    1
    37    15    17    1
@<TRIPOS>MOLECULE
*****
 34 37 0 0 0
SMALL
GASTEIGER

@<TRIPOS>ATOM
      1 N         143.7716  143.9892  161.7798 N.3     1  UNL1       -0.2935
      2 H         144.1267  144.7074  161.1485 H       1  UNL1        0.1236
      3 C         143.6147  144.6341  163.1250 C.3     1  UNL1        0.0956
      4 C         142.0351  142.2441  166.5952 C.ar    1  UNL1        0.0001
      5 C         143.5126  142.4478  166.4355 C.ar    1  UNL1       -0.0003
      6 C         144.0392  143.2445  165.2788 C.ar    1  UNL1       -0.0029
      7 C         143.0882  143.8374  164.2817 C.ar    1  UNL1       -0.0064
      8 C         141.6107  143.6336  164.4414 C.ar    1  UNL1       -0.0029
      9 C         141.0841  142.8370  165.5982 C.ar    1  UNL1       -0.0003
     10 C         140.0860  140.9717  167.7493 C.2     1  UNL1        0.0598
     11 C         141.5086  141.4474  167.7520 C.2     1  UNL1        0.0047
     12 O         138.2972  139.3787  168.7555 O.2     1  UNL1       -0.2681
     13 C         139.5594  140.1750  168.9061 C.2     1  UNL1        0.2679
     14 N         140.2950  140.1746  170.2133 N.am    1  UNL1       -0.1934
     15 O         139.7683  139.3779  171.3700 O.3     1  UNL1       -0.2949
     16 H         141.1234  140.6972  170.3122 H       1  UNL1        0.1825
     17 H         138.9515  138.9260  171.1061 H       1  UNL1        0.2414
     18 C         144.6633  142.7935  161.6207 C.3     1  UNL1        0.0736
     19 C         144.0732  141.4587  161.2740 C.3     1  UNL1        0.0450
     20 C         142.9901  140.8722  162.1302 C.2     1  UNL1       -0.0005
     21 C         141.5147  140.9805  161.8827 C.2     1  UNL1        0.0946
     22 N         140.8051  140.2497  162.9838 N.2     1  UNL1       -0.2481
     23 C         141.8420  139.6898  163.9119 C.2     1  UNL1        0.0631
     24 C         141.7310  138.8794  165.1692 C.3     1  UNL1        0.0717
     25 C         142.9704  138.4537  165.8989 C.2     1  UNL1       -0.0198
     26 C         144.3208  138.8384  165.3714 C.2     1  UNL1       -0.0042
     27 C         144.4318  139.6489  164.1141 C.2     1  UNL1        0.0006
     28 C         143.1924  140.0746  163.3843 C.2     1  UNL1        0.0114
     29 C         140.8632  141.6942  160.7354 C.ar    1  UNL1        0.0986
     30 C         140.0399  140.9261  159.7444 C.ar    1  UNL1        0.0207
     31 C         139.3884  141.6398  158.5972 C.ar    1  UNL1        0.0032
     32 C         139.5602  143.1217  158.4409 C.ar    1  UNL1        0.0207
     33 C         140.3835  143.8898  159.4319 C.ar    1  UNL1        0.0989
     34 N         141.0350  143.1761  160.5791 N.ar    1  UNL1       -0.2423
@<TRIPOS>BOND
     1    12    13    2
     2    13    10    1
     3    10    11    2
     4    11     4    1
     5     4     5   ar
     6     5     6   ar
     7     6     7   ar
     8     7     3    1
     9     3     1    1
    10     1    18    1
    11    18    19    1
    12    19    20    1
    13    20    21    2
    14    21    29    1
    15    29    30   ar
    16    30    31   ar
    17    31    32   ar
    18    32    33   ar
    19    33    34   ar
    20    21    22    1
    21    22    23    2
    22    23    24    1
    23    24    25    1
    24    25    26    2
    25    26    27    1
    26    27    28    2
    27     7     8   ar
    28     8     9   ar
    29    13    14   am
    30    14    15    1
    31     9     4   ar
    32    28    20    1
    33    34    29   ar
    34    28    23    1
    35     1     2    1
    36    14    16    1
    37    15    17    1
@<TRIPOS>MOLECULE
*****
 34 37 0 0 0
SMALL
GASTEIGER

@<TRIPOS>ATOM
      1 N         137.6906  139.7296  162.1248 N.3     1  UNL1       -0.2935
      2 H         138.3418  140.2015  161.4975 H       1  UNL1        0.1236
      3 C         137.4103  140.6786  163.2520 C.3     1  UNL1        0.0956
      4 C         140.1911  140.8589  166.7855 C.ar    1  UNL1        0.0001
      5 C         140.3286  141.8537  165.6713 C.ar    1  UNL1       -0.0003
      6 C         139.4017  141.7937  164.4935 C.ar    1  UNL1       -0.0029
      7 C         138.3372  140.7387  164.4298 C.ar    1  UNL1       -0.0064
      8 C         138.1997  139.7438  165.5440 C.ar    1  UNL1       -0.0029
      9 C         139.1266  139.8039  166.7218 C.ar    1  UNL1       -0.0003
     10 C         140.8875  140.0249  169.1454 C.2     1  UNL1        0.0598
     11 C         141.1180  140.9190  167.9633 C.2     1  UNL1        0.0047
     12 O         141.5012  140.9889  171.4786 O.2     1  UNL1       -0.2681
     13 C         141.8144  140.0849  170.3232 C.2     1  UNL1        0.2679
     14 N         143.0543  139.2411  170.3458 N.am    1  UNL1       -0.1934
     15 O         143.9811  139.3012  171.5237 O.3     1  UNL1       -0.2949
     16 H         143.2598  138.6478  169.5875 H       1  UNL1        0.1825
     17 H         143.6342  139.9294  172.1763 H       1  UNL1        0.2414
     18 C         138.2692  138.3755  162.4108 C.3     1  UNL1        0.0736
     19 C         139.6824  138.0649  162.0150 C.3     1  UNL1        0.0450
     20 C         140.7805  139.0369  162.3305 C.2     1  UNL1       -0.0005
     21 C         141.1811  140.2162  161.4947 C.2     1  UNL1        0.0946
     22 N         142.3189  140.9083  162.1849 N.2     1  UNL1       -0.2481
     23 C         142.6216  140.1567  163.4472 C.2     1  UNL1        0.0631
     24 C         143.6401  140.3760  164.5263 C.3     1  UNL1        0.0717
     25 C         143.7077  139.4388  165.6954 C.2     1  UNL1       -0.0198
     26 C         142.7569  138.2821  165.7854 C.2     1  UNL1       -0.0042
     27 C         141.7384  138.0628  164.7063 C.2     1  UNL1        0.0006
     28 C         141.6707  139.0000  163.5372 C.2     1  UNL1        0.0114
     29 C         140.5539  140.6307  160.1967 C.ar    1  UNL1        0.0986
     30 C         141.1333  140.1540  158.8978 C.ar    1  UNL1        0.0207
     31 C         140.5062  140.5685  157.5998 C.ar    1  UNL1        0.0032
     32 C         139.2997  141.4598  157.6006 C.ar    1  UNL1        0.0207
     33 C         138.7204  141.9365  158.8994 C.ar    1  UNL1        0.0989
     34 N         139.3475  141.5220  160.1975 N.ar    1  UNL1       -0.2423
@<TRIPOS>BOND
     1    12    13    2
     2    13    10    1
     3    10    11    2
     4    11     4    1
     5     4     5   ar
     6     5     6   ar
     7     6     7   ar
     8     7     3    1
     9     3     1    1
    10     1    18    1
    11    18    19    1
    12    19    20    1
    13    20    21    2
    14    21    29    1
    15    29    30   ar
    16    30    31   ar
    17    31    32   ar
    18    32    33   ar
    19    33    34   ar
    20    21    22    1
    21    22    23    2
    22    23    24    1
    23    24    25    1
    24    25    26    2
    25    26    27    1
    26    27    28    2
    27     7     8   ar
    28     8     9   ar
    29    13    14   am
    30    14    15    1
    31     9     4   ar
    32    28    20    1
    33    34    29   ar
    34    28    23    1
    35     1     2    1
    36    14    16    1
    37    15    17    1
@<TRIPOS>MOLECULE
*****
 34 37 0 0 0
SMALL
GASTEIGER

@<TRIPOS>ATOM
      1 N         144.7991  140.8545  161.7858 N.3     1  UNL1       -0.2935
      2 H         145.6004  140.3766  161.3735 H       1  UNL1        0.1236
      3 C         145.1924  141.2324  163.1831 C.3     1  UNL1        0.0956
      4 C         142.5059  140.1842  166.6378 C.ar    1  UNL1        0.0001
      5 C         143.3981  139.1386  166.0373 C.ar    1  UNL1       -0.0003
      6 C         144.2936  139.4879  164.8857 C.ar    1  UNL1       -0.0029
      7 C         144.2969  140.8830  164.3347 C.ar    1  UNL1       -0.0064
      8 C         143.4047  141.9288  164.9352 C.ar    1  UNL1       -0.0029
      9 C         142.5093  141.5793  166.0868 C.ar    1  UNL1       -0.0003
     10 C         141.1173  140.9119  168.7095 C.2     1  UNL1        0.0598
     11 C         141.6105  139.8348  167.7894 C.2     1  UNL1        0.0047
     12 O         139.1008  141.4822  170.2452 O.2     1  UNL1       -0.2681
     13 C         140.2218  140.5625  169.8611 C.2     1  UNL1        0.2679
     14 N         140.4473  139.2936  170.6285 N.am    1  UNL1       -0.1934
     15 O         139.5518  138.9444  171.7801 O.3     1  UNL1       -0.2949
     16 H         141.1830  138.6900  170.3764 H       1  UNL1        0.1825
     17 H         138.8848  139.6395  171.8934 H       1  UNL1        0.2414
     18 C         143.6051  139.9766  161.5543 C.3     1  UNL1        0.0736
     19 C         142.2592  140.5910  161.3066 C.3     1  UNL1        0.0450
     20 C         141.2073  140.5486  162.3751 C.2     1  UNL1       -0.0005
     21 C         140.3123  141.6833  162.7768 C.2     1  UNL1        0.0946
     22 N         139.4176  141.2000  163.8794 N.2     1  UNL1       -0.2481
     23 C         139.7596  139.7665  164.1592 C.2     1  UNL1        0.0631
     24 C         139.2067  138.7759  165.1404 C.3     1  UNL1        0.0717
     25 C         139.7599  137.3826  165.1919 C.2     1  UNL1       -0.0198
     26 C         140.8660  136.9800  164.2622 C.2     1  UNL1       -0.0042
     27 C         141.4189  137.9707  163.2809 C.2     1  UNL1        0.0006
     28 C         140.8657  139.3639  163.2295 C.2     1  UNL1        0.0114
     29 C         140.3121  143.0598  162.1805 C.ar    1  UNL1        0.0986
     30 C         140.6343  144.2482  163.0371 C.ar    1  UNL1        0.0207
     31 C         140.6341  145.6246  162.4408 C.ar    1  UNL1        0.0032
     32 C         140.3117  145.8126  160.9880 C.ar    1  UNL1        0.0207
     33 C         139.9895  144.6241  160.1315 C.ar    1  UNL1        0.0989
     34 N         139.9897  143.2477  160.7277 N.ar    1  UNL1       -0.2423
@<TRIPOS>BOND
     1    12    13    2
     2    13    10    1
     3    10    11    2
     4    11     4    1
     5     4     5   ar
     6     5     6   ar
     7     6     7   ar
     8     7     3    1
     9     3     1    1
    10     1    18    1
    11    18    19    1
    12    19    20    1
    13    20    21    2
    14    21    29    1
    15    29    30   ar
    16    30    31   ar
    17    31    32   ar
    18    32    33   ar
    19    33    34   ar
    20    21    22    1
    21    22    23    2
    22    23    24    1
    23    24    25    1
    24    25    26    2
    25    26    27    1
    26    27    28    2
    27     7     8   ar
    28     8     9   ar
    29    13    14   am
    30    14    15    1
    31     9     4   ar
    32    28    20    1
    33    34    29   ar
    34    28    23    1
    35     1     2    1
    36    14    16    1
    37    15    17    1
@<TRIPOS>MOLECULE
*****
 34 37 0 0 0
SMALL
GASTEIGER

@<TRIPOS>ATOM
      1 N         143.0287  139.6260  161.3504 N.3     1  UNL1       -0.2935
      2 H         143.6409  139.6533  160.5351 H       1  UNL1        0.1236
      3 C         143.8823  139.2347  162.5200 C.3     1  UNL1        0.0956
      4 C         142.6600  140.4062  166.6894 C.ar    1  UNL1        0.0001
      5 C         142.6139  138.9665  166.2709 C.ar    1  UNL1       -0.0003
      6 C         143.0213  138.5759  164.8811 C.ar    1  UNL1       -0.0029
      7 C         143.4749  139.6251  163.9098 C.ar    1  UNL1       -0.0064
      8 C         143.5210  141.0649  164.3283 C.ar    1  UNL1       -0.0029
      9 C         143.1135  141.4554  165.7181 C.ar    1  UNL1       -0.0003
     10 C         142.5769  142.1658  168.5990 C.2     1  UNL1        0.0598
     11 C         142.2526  140.7967  168.0792 C.2     1  UNL1        0.0047
     12 O         142.9102  143.6432  170.7099 O.2     1  UNL1       -0.2681
     13 C         142.1695  142.5564  169.9888 C.2     1  UNL1        0.2679
     14 N         141.0214  141.8601  170.6575 N.am    1  UNL1       -0.1934
     15 O         140.6141  142.2507  172.0473 O.3     1  UNL1       -0.2949
     16 H         140.5352  141.1467  170.1842 H       1  UNL1        0.1825
     17 H         141.1911  142.9626  172.3653 H       1  UNL1        0.2414
     18 C         141.8429  138.7881  160.9738 C.3     1  UNL1        0.0736
     19 C         140.4543  139.3043  161.2098 C.3     1  UNL1        0.0450
     20 C         140.1513  140.1056  162.4411 C.2     1  UNL1       -0.0005
     21 C         140.2881  141.5927  162.5811 C.2     1  UNL1        0.0946
     22 N         139.8795  141.9666  163.9751 N.2     1  UNL1       -0.2481
     23 C         139.4903  140.7105  164.6967 C.2     1  UNL1        0.0631
     24 C         139.0046  140.4654  166.0945 C.3     1  UNL1        0.0717
     25 C         138.6869  139.0702  166.5443 C.2     1  UNL1       -0.0198
     26 C         138.8548  137.9200  165.5962 C.2     1  UNL1       -0.0042
     27 C         139.3405  138.1650  164.1984 C.2     1  UNL1        0.0006
     28 C         139.6582  139.5603  163.7486 C.2     1  UNL1        0.0114
     29 C         140.7519  142.5398  161.5143 C.ar    1  UNL1        0.0986
     30 C         139.7580  143.3984  160.7898 C.ar    1  UNL1        0.0207
     31 C         140.2219  144.3454  159.7230 C.ar    1  UNL1        0.0032
     32 C         141.6796  144.4339  159.3808 C.ar    1  UNL1        0.0207
     33 C         142.6735  143.5753  160.1053 C.ar    1  UNL1        0.0989
     34 N         142.2096  142.6282  161.1721 N.ar    1  UNL1       -0.2423
@<TRIPOS>BOND
     1    12    13    2
     2    13    10    1
     3    10    11    2
     4    11     4    1
     5     4     5   ar
     6     5     6   ar
     7     6     7   ar
     8     7     3    1
     9     3     1    1
    10     1    18    1
    11    18    19    1
    12    19    20    1
    13    20    21    2
    14    21    29    1
    15    29    30   ar
    16    30    31   ar
    17    31    32   ar
    18    32    33   ar
    19    33    34   ar
    20    21    22    1
    21    22    23    2
    22    23    24    1
    23    24    25    1
    24    25    26    2
    25    26    27    1
    26    27    28    2
    27     7     8   ar
    28     8     9   ar
    29    13    14   am
    30    14    15    1
    31     9     4   ar
    32    28    20    1
    33    34    29   ar
    34    28    23    1
    35     1     2    1
    36    14    16    1
    37    15    17    1
