@<TRIPOS>MOLECULE
*****
 38 43 0 0 0
SMALL
GASTEIGER

@<TRIPOS>ATOM
      1 C         137.7375  142.7622  163.8031 C.3     1  UNL1        0.0932
      2 C         137.7937  142.7441  162.3043 C.3     1  UNL1        0.0286
      3 C         137.9419  141.4417  161.5750 C.3     1  UNL1        0.0196
      4 C         138.0339  140.1574  162.3446 C.3     1  UNL1        0.0732
      5 C         137.9777  140.1755  163.8434 C.3     1  UNL1        0.0196
      6 C         137.8295  141.4780  164.5727 C.3     1  UNL1        0.0286
      7 C         137.9534  140.8464  162.7882 C.3     1  UNL1        0.1564
      8 O         137.8194  142.0240  163.4476 O.3     1  UNL1       -0.3571
      9 N         138.1821  138.8550  161.6153 N.3     1  UNL1       -0.2666
     10 C         136.9753  138.0073  161.3414 C.3     1  UNL1        0.0899
     11 C         139.5370  138.4005  161.1599 C.3     1  UNL1        0.1187
     12 C         140.7111  138.4944  162.0888 C.ar    1  UNL1        0.0768
     13 C         140.8160  137.5647  163.2613 C.ar    1  UNL1        0.0194
     14 C         141.9900  137.6587  164.1902 C.ar    1  UNL1        0.0411
     15 C         143.0591  138.6823  163.9466 C.ar    1  UNL1        0.1708
     16 C         142.9542  139.6120  162.7742 C.ar    1  UNL1        0.1682
     17 N         141.7801  139.5180  161.8453 N.ar    1  UNL1       -0.2304
     18 N         144.0232  140.6356  162.5306 N.am    1  UNL1       -0.2639
     19 C         145.1972  140.7295  163.4595 C.2     1  UNL1        0.2718
     20 O         146.2663  141.7532  163.2160 O.2     1  UNL1       -0.2707
     21 C         145.3021  139.7998  164.6320 C.3     1  UNL1        0.2898
     22 O         144.2331  138.7762  164.8756 O.3     1  UNL1       -0.4628
     23 H         143.9543  141.2458  161.7611 H       1  UNL1        0.1565
     24 C         137.5893  144.0645  164.5324 C.3     1  UNL1        0.0320
     25 C         138.8001  144.7572  165.0840 C.3     1  UNL1        0.0327
     26 C         141.0412  141.9483  167.7928 C.ar    1  UNL1        0.2250
     27 C         142.4134  141.4759  167.4135 C.ar    1  UNL1        0.0593
     28 C         143.0386  141.9398  166.1314 C.ar    1  UNL1        0.0254
     29 C         142.2916  142.8761  165.2285 C.ar    1  UNL1        0.0990
     30 N         142.9168  143.3401  163.9464 N.ar    1  UNL1       -0.2400
     31 C         142.1698  144.2764  163.0435 C.ar    1  UNL1        0.1281
     32 C         140.7976  144.7488  163.4227 C.ar    1  UNL1        0.1566
     33 F         140.0506  145.6851  162.5198 F       1  UNL1       -0.2028
     34 C         140.1723  144.2849  164.7048 C.ar    1  UNL1        0.0261
     35 C         140.9194  143.3485  165.6077 C.ar    1  UNL1        0.1002
     36 N         140.2942  142.8846  166.8899 N.ar    1  UNL1       -0.2104
     37 C         139.9881  142.4860  170.1061 C.3     1  UNL1        0.2542
     38 O         140.4160  141.4843  169.0749 O.3     1  UNL1       -0.4561
@<TRIPOS>BOND
     1    37    38    1
     2    38    26    1
     3    26    27   ar
     4    27    28   ar
     5    28    29   ar
     6    29    30   ar
     7    30    31   ar
     8    31    32   ar
     9    32    33    1
    10    32    34   ar
    11    34    25    1
    12    25    24    1
    13    24     1    1
    14     1     2    1
    15     2     3    1
    16     3     4    1
    17     4     9    1
    18     9    10    1
    19     9    11    1
    20    11    12    1
    21    12    13   ar
    22    13    14   ar
    23    14    15   ar
    24    15    16   ar
    25    16    17   ar
    26    16    18    1
    27    18    19   am
    28    19    20    2
    29    19    21    1
    30    21    22    1
    31     4     5    1
    32     5     6    1
    33     4     7    1
    34     7     8    1
    35    34    35   ar
    36    35    36   ar
    37    36    26   ar
    38    35    29   ar
    39     6     1    1
    40     8     1    1
    41    17    12   ar
    42    22    15    1
    43    18    23    1
@<TRIPOS>MOLECULE
*****
 38 43 0 0 0
SMALL
GASTEIGER

@<TRIPOS>ATOM
      1 C         142.9080  144.0586  162.7119 C.3     1  UNL1        0.0932
      2 C         143.0369  143.0434  161.6151 C.3     1  UNL1        0.0286
      3 C         141.8525  142.7128  160.7561 C.3     1  UNL1        0.0196
      4 C         140.5391  143.3973  160.9939 C.3     1  UNL1        0.0732
      5 C         140.4102  144.4125  162.0907 C.3     1  UNL1        0.0196
      6 C         141.5947  144.7430  162.9497 C.3     1  UNL1        0.0286
      7 C         141.1601  143.6115  161.4905 C.3     1  UNL1        0.1564
      8 O         142.2310  143.9104  162.2672 O.3     1  UNL1       -0.3571
      9 N         139.3547  143.0667  160.1350 N.3     1  UNL1       -0.2666
     10 C         139.3621  143.4230  158.6779 C.3     1  UNL1        0.0899
     11 C         138.1630  142.3798  160.7331 C.3     1  UNL1        0.1187
     12 C         138.3478  141.1445  161.5637 C.ar    1  UNL1        0.0768
     13 C         138.8225  139.8740  160.9230 C.ar    1  UNL1        0.0194
     14 C         139.0074  138.6387  161.7535 C.ar    1  UNL1        0.0411
     15 C         138.7176  138.6739  163.2249 C.ar    1  UNL1        0.1708
     16 C         138.2429  139.9443  163.8656 C.ar    1  UNL1        0.1682
     17 N         138.0580  141.1797  163.0350 N.ar    1  UNL1       -0.2304
     18 N         137.9531  139.9795  165.3369 N.am    1  UNL1       -0.2639
     19 C         138.1380  138.7442  166.1674 C.2     1  UNL1        0.2718
     20 O         137.8482  138.7794  167.6388 O.2     1  UNL1       -0.2707
     21 C         138.6127  137.4738  165.5267 C.3     1  UNL1        0.2898
     22 O         138.9025  137.4386  164.0554 O.3     1  UNL1       -0.4628
     23 H         137.6415  140.8134  165.7574 H       1  UNL1        0.1565
     24 C         144.0924  144.3892  163.5708 C.3     1  UNL1        0.0320
     25 C         144.2879  143.6864  164.8816 C.3     1  UNL1        0.0327
     26 C         141.2089  141.7552  167.5350 C.ar    1  UNL1        0.2250
     27 C         141.1119  140.2601  167.6062 C.ar    1  UNL1        0.0593
     28 C         142.0412  139.4087  166.7929 C.ar    1  UNL1        0.0254
     29 C         143.0675  140.0524  165.9084 C.ar    1  UNL1        0.0990
     30 N         143.9969  139.2009  165.0951 N.ar    1  UNL1       -0.2400
     31 C         145.0232  139.8446  164.2107 C.ar    1  UNL1        0.1281
     32 C         145.1202  141.3398  164.1395 C.ar    1  UNL1        0.1566
     33 F         146.1465  141.9836  163.2550 F       1  UNL1       -0.2028
     34 C         144.1909  142.1913  164.9528 C.ar    1  UNL1        0.0261
     35 C         143.1645  141.5475  165.8373 C.ar    1  UNL1        0.1002
     36 N         142.2352  142.3989  166.6505 N.ar    1  UNL1       -0.2104
     37 C         140.8021  143.3712  169.5283 C.3     1  UNL1        0.2542
     38 O         140.2796  142.6067  168.3483 O.3     1  UNL1       -0.4561
@<TRIPOS>BOND
     1    37    38    1
     2    38    26    1
     3    26    27   ar
     4    27    28   ar
     5    28    29   ar
     6    29    30   ar
     7    30    31   ar
     8    31    32   ar
     9    32    33    1
    10    32    34   ar
    11    34    25    1
    12    25    24    1
    13    24     1    1
    14     1     2    1
    15     2     3    1
    16     3     4    1
    17     4     9    1
    18     9    10    1
    19     9    11    1
    20    11    12    1
    21    12    13   ar
    22    13    14   ar
    23    14    15   ar
    24    15    16   ar
    25    16    17   ar
    26    16    18    1
    27    18    19   am
    28    19    20    2
    29    19    21    1
    30    21    22    1
    31     4     5    1
    32     5     6    1
    33     4     7    1
    34     7     8    1
    35    34    35   ar
    36    35    36   ar
    37    36    26   ar
    38    35    29   ar
    39     6     1    1
    40     8     1    1
    41    17    12   ar
    42    22    15    1
    43    18    23    1
@<TRIPOS>MOLECULE
*****
 38 43 0 0 0
SMALL
GASTEIGER

@<TRIPOS>ATOM
      1 C         139.0590  143.2249  164.7896 C.3     1  UNL1        0.0932
      2 C         139.9659  142.5831  165.7974 C.3     1  UNL1        0.0286
      3 C         139.8013  141.1315  166.1374 C.3     1  UNL1        0.0196
      4 C         138.7297  140.3216  165.4696 C.3     1  UNL1        0.0732
      5 C         137.8228  140.9634  164.4618 C.3     1  UNL1        0.0196
      6 C         137.9875  142.4151  164.1219 C.3     1  UNL1        0.0286
      7 C         138.7815  141.1137  165.2508 C.3     1  UNL1        0.1564
      8 O         138.9303  142.4263  164.9434 O.3     1  UNL1       -0.3571
      9 N         138.5651  138.8700  165.8096 N.3     1  UNL1       -0.2666
     10 C         137.6500  138.4600  166.9252 C.3     1  UNL1        0.0899
     11 C         139.3155  137.8283  165.0340 C.3     1  UNL1        0.1187
     12 C         139.5623  138.0185  163.5667 C.ar    1  UNL1        0.0768
     13 C         138.4308  137.8799  162.5917 C.ar    1  UNL1        0.0194
     14 C         138.6775  138.0701  161.1245 C.ar    1  UNL1        0.0411
     15 C         140.0557  138.3991  160.6321 C.ar    1  UNL1        0.1708
     16 C         141.1872  138.5377  161.6070 C.ar    1  UNL1        0.1682
     17 N         140.9404  138.3474  163.0743 N.ar    1  UNL1       -0.2304
     18 N         142.5653  138.8666  161.1147 N.am    1  UNL1       -0.2639
     19 C         142.8120  139.0569  159.6474 C.2     1  UNL1        0.2718
     20 O         144.1902  139.3858  159.1550 O.2     1  UNL1       -0.2707
     21 C         141.6805  138.9182  158.6725 C.3     1  UNL1        0.2898
     22 O         140.3024  138.5893  159.1648 O.3     1  UNL1       -0.4628
     23 H         143.3080  138.9576  161.7546 H       1  UNL1        0.1565
     24 C         139.2236  144.6765  164.4497 C.3     1  UNL1        0.0320
     25 C         140.5555  145.1934  163.9926 C.3     1  UNL1        0.0327
     26 C         143.8147  142.1890  163.2172 C.ar    1  UNL1        0.2250
     27 C         144.2782  141.9306  161.8142 C.ar    1  UNL1        0.0593
     28 C         143.6553  142.6736  160.6697 C.ar    1  UNL1        0.0254
     29 C         142.5690  143.6751  160.9281 C.ar    1  UNL1        0.0990
     30 N         141.9461  144.4181  159.7836 N.ar    1  UNL1       -0.2400
     31 C         140.8597  145.4196  160.0421 C.ar    1  UNL1        0.1281
     32 C         140.3961  145.6780  161.4451 C.ar    1  UNL1        0.1566
     33 F         139.3098  146.6795  161.7035 F       1  UNL1       -0.2028
     34 C         141.0190  144.9350  162.5896 C.ar    1  UNL1        0.0261
     35 C         142.1055  143.9335  162.3311 C.ar    1  UNL1        0.1002
     36 N         142.7284  143.1905  163.4756 N.ar    1  UNL1       -0.2104
     37 C         145.2284  140.1978  164.1039 C.3     1  UNL1        0.2542
     38 O         144.4376  141.4460  164.3617 O.3     1  UNL1       -0.4561
@<TRIPOS>BOND
     1    37    38    1
     2    38    26    1
     3    26    27   ar
     4    27    28   ar
     5    28    29   ar
     6    29    30   ar
     7    30    31   ar
     8    31    32   ar
     9    32    33    1
    10    32    34   ar
    11    34    25    1
    12    25    24    1
    13    24     1    1
    14     1     2    1
    15     2     3    1
    16     3     4    1
    17     4     9    1
    18     9    10    1
    19     9    11    1
    20    11    12    1
    21    12    13   ar
    22    13    14   ar
    23    14    15   ar
    24    15    16   ar
    25    16    17   ar
    26    16    18    1
    27    18    19   am
    28    19    20    2
    29    19    21    1
    30    21    22    1
    31     4     5    1
    32     5     6    1
    33     4     7    1
    34     7     8    1
    35    34    35   ar
    36    35    36   ar
    37    36    26   ar
    38    35    29   ar
    39     6     1    1
    40     8     1    1
    41    17    12   ar
    42    22    15    1
    43    18    23    1
@<TRIPOS>MOLECULE
*****
 38 43 0 0 0
SMALL
GASTEIGER

@<TRIPOS>ATOM
      1 C         139.8653  137.8276  164.0503 C.3     1  UNL1        0.0932
      2 C         139.4474  138.2005  162.6588 C.3     1  UNL1        0.0286
      3 C         140.4793  138.3504  161.5806 C.3     1  UNL1        0.0196
      4 C         141.9293  138.1273  161.8938 C.3     1  UNL1        0.0732
      5 C         142.3472  137.7544  163.2853 C.3     1  UNL1        0.0196
      6 C         141.3152  137.6045  164.3635 C.3     1  UNL1        0.0286
      7 C         141.4001  138.0336  162.5176 C.3     1  UNL1        0.1564
      8 O         140.4671  137.8981  163.4926 O.3     1  UNL1       -0.3571
      9 N         142.9612  138.2772  160.8155 N.3     1  UNL1       -0.2666
     10 C         142.8598  137.4602  159.5616 C.3     1  UNL1        0.0899
     11 C         144.0944  139.2440  160.9912 C.3     1  UNL1        0.1187
     12 C         143.8885  140.5067  161.7743 C.ar    1  UNL1        0.0768
     13 C         144.7281  140.7830  162.9862 C.ar    1  UNL1        0.0194
     14 C         144.5222  142.0457  163.7693 C.ar    1  UNL1        0.0411
     15 C         143.4766  143.0321  163.3405 C.ar    1  UNL1        0.1708
     16 C         142.6370  142.7558  162.1286 C.ar    1  UNL1        0.1682
     17 N         142.8429  141.4931  161.3455 N.ar    1  UNL1       -0.2304
     18 N         141.5915  143.7422  161.6998 N.am    1  UNL1       -0.2639
     19 C         141.3856  145.0048  162.4829 C.2     1  UNL1        0.2718
     20 O         140.3400  145.9913  162.0541 O.2     1  UNL1       -0.2707
     21 C         142.2252  145.2811  163.6948 C.3     1  UNL1        0.2898
     22 O         143.2707  144.2948  164.1236 O.3     1  UNL1       -0.4628
     23 H         141.0404  143.5608  160.9044 H       1  UNL1        0.1565
     24 C         138.8334  137.6777  165.1285 C.3     1  UNL1        0.0320
     25 C         138.5159  138.8347  166.0289 C.3     1  UNL1        0.0327
     26 C         142.1828  140.1979  168.2527 C.ar    1  UNL1        0.2250
     27 C         142.7705  141.5493  167.9728 C.ar    1  UNL1        0.0593
     28 C         142.1359  142.4463  166.9517 C.ar    1  UNL1        0.0254
     29 C         140.9136  141.9919  166.2105 C.ar    1  UNL1        0.0990
     30 N         140.2790  142.8889  165.1894 N.ar    1  UNL1       -0.2400
     31 C         139.0567  142.4345  164.4481 C.ar    1  UNL1        0.1281
     32 C         138.4690  141.0831  164.7279 C.ar    1  UNL1        0.1566
     33 F         137.2467  140.6287  163.9867 F       1  UNL1       -0.2028
     34 C         139.1036  140.1861  165.7490 C.ar    1  UNL1        0.0261
     35 C         140.3259  140.6405  166.4903 C.ar    1  UNL1        0.1002
     36 N         140.9606  139.7435  167.5114 N.ar    1  UNL1       -0.2104
     37 C         143.0450  139.7978  170.6706 C.3     1  UNL1        0.2542
     38 O         142.8175  139.3009  169.2738 O.3     1  UNL1       -0.4561
@<TRIPOS>BOND
     1    37    38    1
     2    38    26    1
     3    26    27   ar
     4    27    28   ar
     5    28    29   ar
     6    29    30   ar
     7    30    31   ar
     8    31    32   ar
     9    32    33    1
    10    32    34   ar
    11    34    25    1
    12    25    24    1
    13    24     1    1
    14     1     2    1
    15     2     3    1
    16     3     4    1
    17     4     9    1
    18     9    10    1
    19     9    11    1
    20    11    12    1
    21    12    13   ar
    22    13    14   ar
    23    14    15   ar
    24    15    16   ar
    25    16    17   ar
    26    16    18    1
    27    18    19   am
    28    19    20    2
    29    19    21    1
    30    21    22    1
    31     4     5    1
    32     5     6    1
    33     4     7    1
    34     7     8    1
    35    34    35   ar
    36    35    36   ar
    37    36    26   ar
    38    35    29   ar
    39     6     1    1
    40     8     1    1
    41    17    12   ar
    42    22    15    1
    43    18    23    1
@<TRIPOS>MOLECULE
*****
 38 43 0 0 0
SMALL
GASTEIGER

@<TRIPOS>ATOM
      1 C         139.2293  142.9968  162.8058 C.3     1  UNL1        0.0932
      2 C         140.4641  142.8128  161.9744 C.3     1  UNL1        0.0286
      3 C         141.8163  143.0596  162.5750 C.3     1  UNL1        0.0196
      4 C         141.9336  143.4905  164.0070 C.3     1  UNL1        0.0732
      5 C         140.6988  143.6745  164.8384 C.3     1  UNL1        0.0196
      6 C         139.3466  143.4277  164.2378 C.3     1  UNL1        0.0286
      7 C         141.1711  143.3672  163.7219 C.3     1  UNL1        0.1564
      8 O         139.9484  143.1440  163.1789 O.3     1  UNL1       -0.3571
      9 N         143.2858  143.7374  164.6076 N.3     1  UNL1       -0.2666
     10 C         143.9564  145.0666  164.4246 C.3     1  UNL1        0.0899
     11 C         143.9673  142.6550  165.3911 C.3     1  UNL1        0.1187
     12 C         143.1956  141.8638  166.4052 C.ar    1  UNL1        0.0768
     13 C         142.8429  140.4322  166.1292 C.ar    1  UNL1        0.0194
     14 C         142.0712  139.6409  167.1432 C.ar    1  UNL1        0.0411
     15 C         141.6521  140.2812  168.4334 C.ar    1  UNL1        0.1708
     16 C         142.0048  141.7128  168.7094 C.ar    1  UNL1        0.1682
     17 N         142.7765  142.5041  167.6953 N.ar    1  UNL1       -0.2304
     18 N         141.5858  142.3532  169.9995 N.am    1  UNL1       -0.2639
     19 C         140.8141  141.5619  171.0135 C.2     1  UNL1        0.2718
     20 O         140.3950  142.2022  172.3037 O.2     1  UNL1       -0.2707
     21 C         140.4614  140.1303  170.7375 C.3     1  UNL1        0.2898
     22 O         140.8804  139.4900  169.4474 O.3     1  UNL1       -0.4628
     23 H         141.8172  143.2927  170.1807 H       1  UNL1        0.1565
     24 C         137.8771  142.7499  162.2053 C.3     1  UNL1        0.0320
     25 C         137.3158  141.3594  162.1673 C.3     1  UNL1        0.0327
     26 C         138.9945  138.6506  165.3445 C.ar    1  UNL1        0.2250
     27 C         139.8730  137.4975  164.9594 C.ar    1  UNL1        0.0593
     28 C         140.1921  137.2472  163.5152 C.ar    1  UNL1        0.0254
     29 C         139.6325  138.1501  162.4562 C.ar    1  UNL1        0.0990
     30 N         139.9516  137.8999  161.0120 N.ar    1  UNL1       -0.2400
     31 C         139.3921  138.8028  159.9529 C.ar    1  UNL1        0.1281
     32 C         138.5134  139.9560  160.3380 C.ar    1  UNL1        0.1566
     33 F         137.9539  140.8589  159.2790 F       1  UNL1       -0.2028
     34 C         138.1944  140.2062  161.7822 C.ar    1  UNL1        0.0261
     35 C         138.7540  139.3033  162.8413 C.ar    1  UNL1        0.1002
     36 N         138.4349  139.5535  164.2854 N.ar    1  UNL1       -0.2104
     37 C         137.4092  138.3581  167.3820 C.3     1  UNL1        0.2542
     38 O         138.6754  138.9008  166.7886 O.3     1  UNL1       -0.4561
@<TRIPOS>BOND
     1    37    38    1
     2    38    26    1
     3    26    27   ar
     4    27    28   ar
     5    28    29   ar
     6    29    30   ar
     7    30    31   ar
     8    31    32   ar
     9    32    33    1
    10    32    34   ar
    11    34    25    1
    12    25    24    1
    13    24     1    1
    14     1     2    1
    15     2     3    1
    16     3     4    1
    17     4     9    1
    18     9    10    1
    19     9    11    1
    20    11    12    1
    21    12    13   ar
    22    13    14   ar
    23    14    15   ar
    24    15    16   ar
    25    16    17   ar
    26    16    18    1
    27    18    19   am
    28    19    20    2
    29    19    21    1
    30    21    22    1
    31     4     5    1
    32     5     6    1
    33     4     7    1
    34     7     8    1
    35    34    35   ar
    36    35    36   ar
    37    36    26   ar
    38    35    29   ar
    39     6     1    1
    40     8     1    1
    41    17    12   ar
    42    22    15    1
    43    18    23    1
@<TRIPOS>MOLECULE
*****
 38 43 0 0 0
SMALL
GASTEIGER

@<TRIPOS>ATOM
      1 C         141.5470  144.7181  162.5960 C.3     1  UNL1        0.0932
      2 C         142.0742  143.9021  161.4531 C.3     1  UNL1        0.0286
      3 C         143.0549  142.7967  161.7104 C.3     1  UNL1        0.0196
      4 C         143.5084  142.5072  163.1107 C.3     1  UNL1        0.0732
      5 C         142.9811  143.3232  164.2536 C.3     1  UNL1        0.0196
      6 C         142.0004  144.4287  163.9962 C.3     1  UNL1        0.0286
      7 C         142.9696  143.1231  163.0191 C.3     1  UNL1        0.1564
      8 O         142.0829  144.1226  162.7864 O.3     1  UNL1       -0.3571
      9 N         144.4890  141.4017  163.3680 N.3     1  UNL1       -0.2666
     10 C         145.9340  141.7225  163.6112 C.3     1  UNL1        0.0899
     11 C         144.0247  139.9755  163.3822 C.3     1  UNL1        0.1187
     12 C         142.6286  139.6456  163.8205 C.ar    1  UNL1        0.0768
     13 C         141.6466  139.0830  162.8360 C.ar    1  UNL1        0.0194
     14 C         140.2505  138.7531  163.2743 C.ar    1  UNL1        0.0411
     15 C         139.8364  138.9857  164.6972 C.ar    1  UNL1        0.1708
     16 C         140.8184  139.5482  165.6817 C.ar    1  UNL1        0.1682
     17 N         142.2145  139.8781  165.2433 N.ar    1  UNL1       -0.2304
     18 N         140.4044  139.7808  167.1045 N.am    1  UNL1       -0.2639
     19 C         139.0083  139.4508  167.5428 C.2     1  UNL1        0.2718
     20 O         138.5942  139.6834  168.9657 O.2     1  UNL1       -0.2707
     21 C         138.0263  138.8883  166.5583 C.3     1  UNL1        0.2898
     22 O         138.4404  138.6557  165.1355 O.3     1  UNL1       -0.4628
     23 H         141.0489  140.1500  167.7507 H       1  UNL1        0.1565
     24 C         140.5663  145.8236  162.3387 C.3     1  UNL1        0.0320
     25 C         139.0996  145.5205  162.2543 C.3     1  UNL1        0.0327
     26 C         138.6118  142.1927  159.2648 C.ar    1  UNL1        0.2250
     27 C         138.0954  140.8560  159.7081 C.ar    1  UNL1        0.0593
     28 C         137.7417  140.6285  161.1479 C.ar    1  UNL1        0.0254
     29 C         137.9043  141.7378  162.1445 C.ar    1  UNL1        0.0990
     30 N         137.5505  141.5104  163.5843 N.ar    1  UNL1       -0.2400
     31 C         137.7131  142.6196  164.5808 C.ar    1  UNL1        0.1281
     32 C         138.2295  143.9564  164.1375 C.ar    1  UNL1        0.1566
     33 F         138.3921  145.0656  165.1340 F       1  UNL1       -0.2028
     34 C         138.5833  144.1838  162.6977 C.ar    1  UNL1        0.0261
     35 C         138.4206  143.0745  161.7011 C.ar    1  UNL1        0.1002
     36 N         138.7744  143.3019  160.2613 N.ar    1  UNL1       -0.2104
     37 C         139.7260  143.6495  157.4247 C.3     1  UNL1        0.2542
     38 O         138.9656  142.4201  157.8250 O.3     1  UNL1       -0.4561
@<TRIPOS>BOND
     1    37    38    1
     2    38    26    1
     3    26    27   ar
     4    27    28   ar
     5    28    29   ar
     6    29    30   ar
     7    30    31   ar
     8    31    32   ar
     9    32    33    1
    10    32    34   ar
    11    34    25    1
    12    25    24    1
    13    24     1    1
    14     1     2    1
    15     2     3    1
    16     3     4    1
    17     4     9    1
    18     9    10    1
    19     9    11    1
    20    11    12    1
    21    12    13   ar
    22    13    14   ar
    23    14    15   ar
    24    15    16   ar
    25    16    17   ar
    26    16    18    1
    27    18    19   am
    28    19    20    2
    29    19    21    1
    30    21    22    1
    31     4     5    1
    32     5     6    1
    33     4     7    1
    34     7     8    1
    35    34    35   ar
    36    35    36   ar
    37    36    26   ar
    38    35    29   ar
    39     6     1    1
    40     8     1    1
    41    17    12   ar
    42    22    15    1
    43    18    23    1
@<TRIPOS>MOLECULE
*****
 38 43 0 0 0
SMALL
GASTEIGER

@<TRIPOS>ATOM
      1 C         144.8310  140.9027  162.9717 C.3     1  UNL1        0.0932
      2 C         144.4159  139.5526  163.4766 C.3     1  UNL1        0.0286
      3 C         143.4564  138.7172  162.6820 C.3     1  UNL1        0.0196
      4 C         142.9119  139.2319  161.3825 C.3     1  UNL1        0.0732
      5 C         143.3269  140.5820  160.8776 C.3     1  UNL1        0.0196
      6 C         144.2865  141.4175  161.6723 C.3     1  UNL1        0.0286
      7 C         143.4351  139.7258  161.7828 C.3     1  UNL1        0.1564
      8 O         144.3027  140.4812  162.5013 O.3     1  UNL1       -0.3571
      9 N         141.9524  138.3965  160.5879 N.3     1  UNL1       -0.2666
     10 C         142.3542  137.8675  159.2430 C.3     1  UNL1        0.0899
     11 C         140.5911  138.0901  161.1382 C.3     1  UNL1        0.1187
     12 C         139.8664  139.1144  161.9603 C.ar    1  UNL1        0.0768
     13 C         139.2077  138.7140  163.2470 C.ar    1  UNL1        0.0194
     14 C         138.4831  139.7382  164.0691 C.ar    1  UNL1        0.0411
     15 C         138.4172  141.1630  163.6045 C.ar    1  UNL1        0.1708
     16 C         139.0760  141.5634  162.3178 C.ar    1  UNL1        0.1682
     17 N         139.8006  140.5391  161.4957 N.ar    1  UNL1       -0.2304
     18 N         139.0102  142.9881  161.8532 N.am    1  UNL1       -0.2639
     19 C         138.2856  144.0123  162.6753 C.2     1  UNL1        0.2718
     20 O         138.2198  145.4371  162.2107 O.2     1  UNL1       -0.2707
     21 C         137.6268  143.6119  163.9620 C.3     1  UNL1        0.2898
     22 O         137.6927  142.1872  164.4266 O.3     1  UNL1       -0.4628
     23 H         139.4426  143.2509  161.0087 H       1  UNL1        0.1565
     24 C         145.7905  141.7381  163.7663 C.3     1  UNL1        0.0320
     25 C         145.2753  142.6808  164.8133 C.3     1  UNL1        0.0327
     26 C         142.4119  140.5511  167.5547 C.ar    1  UNL1        0.2250
     27 C         140.9621  140.9353  167.5699 C.ar    1  UNL1        0.0593
     28 C         140.4666  142.0294  166.6713 C.ar    1  UNL1        0.0254
     29 C         141.4211  142.7393  165.7575 C.ar    1  UNL1        0.0990
     30 N         140.9256  143.8334  164.8588 N.ar    1  UNL1       -0.2400
     31 C         141.8801  144.5433  163.9450 C.ar    1  UNL1        0.1281
     32 C         143.3300  144.1591  163.9298 C.ar    1  UNL1        0.1566
     33 F         144.2844  144.8690  163.0160 F       1  UNL1       -0.2028
     34 C         143.8254  143.0650  164.8284 C.ar    1  UNL1        0.0261
     35 C         142.8709  142.3551  165.7423 C.ar    1  UNL1        0.1002
     36 N         143.3663  141.2610  166.6409 N.ar    1  UNL1       -0.2104
     37 C         142.2579  139.2293  169.7861 C.3     1  UNL1        0.2542
     38 O         142.9073  139.4570  168.4533 O.3     1  UNL1       -0.4561
@<TRIPOS>BOND
     1    37    38    1
     2    38    26    1
     3    26    27   ar
     4    27    28   ar
     5    28    29   ar
     6    29    30   ar
     7    30    31   ar
     8    31    32   ar
     9    32    33    1
    10    32    34   ar
    11    34    25    1
    12    25    24    1
    13    24     1    1
    14     1     2    1
    15     2     3    1
    16     3     4    1
    17     4     9    1
    18     9    10    1
    19     9    11    1
    20    11    12    1
    21    12    13   ar
    22    13    14   ar
    23    14    15   ar
    24    15    16   ar
    25    16    17   ar
    26    16    18    1
    27    18    19   am
    28    19    20    2
    29    19    21    1
    30    21    22    1
    31     4     5    1
    32     5     6    1
    33     4     7    1
    34     7     8    1
    35    34    35   ar
    36    35    36   ar
    37    36    26   ar
    38    35    29   ar
    39     6     1    1
    40     8     1    1
    41    17    12   ar
    42    22    15    1
    43    18    23    1
@<TRIPOS>MOLECULE
*****
 38 43 0 0 0
SMALL
GASTEIGER

@<TRIPOS>ATOM
      1 C         143.2496  139.7329  164.7759 C.3     1  UNL1        0.0932
      2 C         142.5131  138.7124  163.9596 C.3     1  UNL1        0.0286
      3 C         141.0168  138.6344  164.0290 C.3     1  UNL1        0.0196
      4 C         140.2568  139.5769  164.9146 C.3     1  UNL1        0.0732
      5 C         140.9933  140.5974  165.7309 C.3     1  UNL1        0.0196
      6 C         142.4897  140.6753  165.6615 C.3     1  UNL1        0.0286
      7 C         141.0762  139.6577  164.9097 C.3     1  UNL1        0.1564
      8 O         142.4292  139.7283  164.8470 O.3     1  UNL1       -0.3571
      9 N         138.7605  139.4989  164.9839 N.3     1  UNL1       -0.2666
     10 C         138.1001  138.7215  166.0838 C.3     1  UNL1        0.0899
     11 C         137.9245  140.1982  163.9535 C.3     1  UNL1        0.1187
     12 C         138.1974  141.6338  163.6146 C.ar    1  UNL1        0.0768
     13 C         137.7296  142.7233  164.5334 C.ar    1  UNL1        0.0194
     14 C         138.0024  144.1588  164.1946 C.ar    1  UNL1        0.0411
     15 C         138.7431  144.5049  162.9370 C.ar    1  UNL1        0.1708
     16 C         139.2109  143.4154  162.0181 C.ar    1  UNL1        0.1682
     17 N         138.9380  141.9798  162.3570 N.ar    1  UNL1       -0.2304
     18 N         139.9516  143.7615  160.7605 N.am    1  UNL1       -0.2639
     19 C         140.2244  145.1970  160.4217 C.2     1  UNL1        0.2718
     20 O         140.9651  145.5431  159.1641 O.2     1  UNL1       -0.2707
     21 C         139.7566  146.2864  161.3406 C.3     1  UNL1        0.2898
     22 O         139.0160  145.9404  162.5982 O.3     1  UNL1       -0.4628
     23 H         140.2586  143.0464  160.1575 H       1  UNL1        0.1565
     24 C         144.7459  139.8109  164.7066 C.3     1  UNL1        0.0320
     25 C         145.4067  140.5649  163.5908 C.3     1  UNL1        0.0327
     26 C         143.5754  140.0095  159.5180 C.ar    1  UNL1        0.2250
     27 C         142.8595  141.1493  158.8559 C.ar    1  UNL1        0.0593
     28 C         142.7540  142.4741  159.5513 C.ar    1  UNL1        0.0254
     29 C         143.3645  142.6593  160.9089 C.ar    1  UNL1        0.0990
     30 N         143.2590  143.9841  161.6043 N.ar    1  UNL1       -0.2400
     31 C         143.8695  144.1692  162.9619 C.ar    1  UNL1        0.1281
     32 C         144.5854  143.0295  163.6241 C.ar    1  UNL1        0.1566
     33 F         145.1958  143.2146  164.9817 F       1  UNL1       -0.2028
     34 C         144.6909  141.7046  162.9286 C.ar    1  UNL1        0.0261
     35 C         144.0804  141.5195  161.5710 C.ar    1  UNL1        0.1002
     36 N         144.1858  140.1947  160.8756 N.ar    1  UNL1       -0.2104
     37 C         142.4642  138.0643  158.2022 C.3     1  UNL1        0.2542
     38 O         143.6808  138.6847  158.8226 O.3     1  UNL1       -0.4561
@<TRIPOS>BOND
     1    37    38    1
     2    38    26    1
     3    26    27   ar
     4    27    28   ar
     5    28    29   ar
     6    29    30   ar
     7    30    31   ar
     8    31    32   ar
     9    32    33    1
    10    32    34   ar
    11    34    25    1
    12    25    24    1
    13    24     1    1
    14     1     2    1
    15     2     3    1
    16     3     4    1
    17     4     9    1
    18     9    10    1
    19     9    11    1
    20    11    12    1
    21    12    13   ar
    22    13    14   ar
    23    14    15   ar
    24    15    16   ar
    25    16    17   ar
    26    16    18    1
    27    18    19   am
    28    19    20    2
    29    19    21    1
    30    21    22    1
    31     4     5    1
    32     5     6    1
    33     4     7    1
    34     7     8    1
    35    34    35   ar
    36    35    36   ar
    37    36    26   ar
    38    35    29   ar
    39     6     1    1
    40     8     1    1
    41    17    12   ar
    42    22    15    1
    43    18    23    1
@<TRIPOS>MOLECULE
*****
 38 43 0 0 0
SMALL
GASTEIGER

@<TRIPOS>ATOM
      1 C         143.2525  142.0237  161.8243 C.3     1  UNL1        0.0932
      2 C         143.4566  143.0996  162.8494 C.3     1  UNL1        0.0286
      3 C         142.3548  144.0740  163.1435 C.3     1  UNL1        0.0196
      4 C         141.0489  143.9725  162.4126 C.3     1  UNL1        0.0732
      5 C         140.8448  142.8966  161.3875 C.3     1  UNL1        0.0196
      6 C         141.9466  141.9222  161.0934 C.3     1  UNL1        0.0286
      7 C         141.6232  143.4158  162.2173 C.3     1  UNL1        0.1564
      8 O         142.6195  142.5347  161.9513 O.3     1  UNL1       -0.3571
      9 N         139.9471  144.9469  162.7067 N.3     1  UNL1       -0.2666
     10 C         139.8198  146.2024  161.8958 C.3     1  UNL1        0.0899
     11 C         138.9725  144.6658  163.8117 C.3     1  UNL1        0.1187
     12 C         139.1688  143.4727  164.6995 C.ar    1  UNL1        0.0768
     13 C         138.4663  142.1840  164.3901 C.ar    1  UNL1        0.0194
     14 C         138.6626  140.9909  165.2777 C.ar    1  UNL1        0.0411
     15 C         139.5614  141.0865  166.4748 C.ar    1  UNL1        0.1708
     16 C         140.2639  142.3752  166.7842 C.ar    1  UNL1        0.1682
     17 N         140.0676  143.5683  165.8965 N.ar    1  UNL1       -0.2304
     18 N         141.1627  142.4708  167.9813 N.am    1  UNL1       -0.2639
     19 C         141.3590  141.2777  168.8689 C.2     1  UNL1        0.2718
     20 O         142.2578  141.3732  170.0661 O.2     1  UNL1       -0.2707
     21 C         140.6564  139.9890  168.5595 C.3     1  UNL1        0.2898
     22 O         139.7577  139.8934  167.3625 O.3     1  UNL1       -0.4628
     23 H         141.6238  143.3166  168.1844 H       1  UNL1        0.1565
     24 C         144.3543  141.0493  161.5302 C.3     1  UNL1        0.0320
     25 C         144.1669  139.5918  161.8314 C.3     1  UNL1        0.0327
     26 C         139.9457  138.0340  161.9042 C.ar    1  UNL1        0.2250
     27 C         139.3250  137.6102  163.2023 C.ar    1  UNL1        0.0593
     28 C         140.1113  137.7057  164.4761 C.ar    1  UNL1        0.0254
     29 C         141.5183  138.2250  164.4519 C.ar    1  UNL1        0.0990
     30 N         142.3046  138.3205  165.7257 N.ar    1  UNL1       -0.2400
     31 C         143.7116  138.8397  165.7015 C.ar    1  UNL1        0.1281
     32 C         144.3324  139.2635  164.4033 C.ar    1  UNL1        0.1566
     33 F         145.7394  139.7828  164.3791 F       1  UNL1       -0.2028
     34 C         143.5461  139.1680  163.1295 C.ar    1  UNL1        0.0261
     35 C         142.1390  138.6487  163.1538 C.ar    1  UNL1        0.1002
     36 N         141.3528  138.5532  161.8800 N.ar    1  UNL1       -0.2104
     37 C         139.2689  139.0216  159.5985 C.3     1  UNL1        0.2542
     38 O         139.1595  137.9385  160.6304 O.3     1  UNL1       -0.4561
@<TRIPOS>BOND
     1    37    38    1
     2    38    26    1
     3    26    27   ar
     4    27    28   ar
     5    28    29   ar
     6    29    30   ar
     7    30    31   ar
     8    31    32   ar
     9    32    33    1
    10    32    34   ar
    11    34    25    1
    12    25    24    1
    13    24     1    1
    14     1     2    1
    15     2     3    1
    16     3     4    1
    17     4     9    1
    18     9    10    1
    19     9    11    1
    20    11    12    1
    21    12    13   ar
    22    13    14   ar
    23    14    15   ar
    24    15    16   ar
    25    16    17   ar
    26    16    18    1
    27    18    19   am
    28    19    20    2
    29    19    21    1
    30    21    22    1
    31     4     5    1
    32     5     6    1
    33     4     7    1
    34     7     8    1
    35    34    35   ar
    36    35    36   ar
    37    36    26   ar
    38    35    29   ar
    39     6     1    1
    40     8     1    1
    41    17    12   ar
    42    22    15    1
    43    18    23    1
