@<TRIPOS>MOLECULE
*****
 34 38 0 0 0
SMALL
GASTEIGER

@<TRIPOS>ATOM
      1 N         137.8724  142.9639  162.8773 N.3     1  UNL1       -0.2710
      2 C         137.6554  141.8411  163.8479 C.3     1  UNL1        0.0735
      3 C         137.6574  140.4211  163.3648 C.3     1  UNL1        0.0331
      4 C         137.8764  140.1239  161.9110 C.3     1  UNL1        0.0570
      5 C         138.0935  141.2467  160.9403 C.3     1  UNL1        0.0331
      6 C         138.0915  142.6667  161.4234 C.3     1  UNL1        0.0735
      7 N         137.8785  138.7038  161.4277 N.3     1  UNL1       -0.2934
      8 H         137.3124  138.6806  160.5795 H       1  UNL1        0.1236
      9 C         139.1754  138.0244  161.1016 C.3     1  UNL1        0.1152
     10 C         140.3673  138.2165  161.9917 C.ar    1  UNL1        0.0782
     11 C         141.4357  139.1989  161.6131 C.ar    1  UNL1        0.0562
     12 C         142.6276  139.3910  162.5032 C.ar    1  UNL1        0.1752
     13 C         142.7511  138.6005  163.7721 C.ar    1  UNL1        0.1914
     14 C         141.6828  137.6181  164.1508 C.ar    1  UNL1        0.1384
     15 N         140.4908  137.4261  163.2605 N.ar    1  UNL1       -0.2434
     16 O         143.9430  138.7926  164.6623 O.3     1  UNL1       -0.4668
     17 C         145.0114  139.7750  164.2836 C.3     1  UNL1        0.2527
     18 C         144.8879  140.5654  163.0148 C.3     1  UNL1        0.2526
     19 O         143.6959  140.3734  162.1246 O.3     1  UNL1       -0.4683
     20 C         137.8704  144.3840  163.3605 C.3     1  UNL1        0.0970
     21 C         138.8758  144.8307  164.3801 C.3     1  UNL1        0.1263
     22 C         140.8890  141.9938  167.2348 C.ar    1  UNL1        0.1402
     23 C         142.3392  141.6543  167.0569 C.ar    1  UNL1        0.0370
     24 C         143.1183  142.2604  165.9275 C.ar    1  UNL1        0.0045
     25 C         142.4473  143.2060  164.9760 C.ar    1  UNL1        0.0162
     26 C         143.2264  143.8121  163.8466 C.ar    1  UNL1        0.0063
     27 C         142.5554  144.7578  162.8950 C.ar    1  UNL1        0.0608
     28 C         141.1051  145.0973  163.0729 C.ar    1  UNL1        0.2610
     29 O         140.4341  146.0429  162.1213 O.2     1  UNL1       -0.2670
     30 N         140.3260  144.4912  164.2023 N.ar    1  UNL1       -0.2940
     31 C         140.9971  143.5455  165.1538 C.ar    1  UNL1        0.0655
     32 C         140.2180  142.9394  166.2832 C.ar    1  UNL1        0.0541
     33 C         139.5039  140.0242  168.2105 C.3     1  UNL1        0.2525
     34 O         140.1099  141.3877  168.3642 O.3     1  UNL1       -0.4714
@<TRIPOS>BOND
     1    33    34    1
     2    34    22    1
     3    22    23   ar
     4    23    24   ar
     5    24    25   ar
     6    25    26   ar
     7    26    27   ar
     8    27    28   ar
     9    28    29    2
    10    28    30   ar
    11    30    21    1
    12    21    20    1
    13    20     1    1
    14     1     2    1
    15     2     3    1
    16     3     4    1
    17     4     7    1
    18     7     9    1
    19     9    10    1
    20    10    11   ar
    21    11    12   ar
    22    12    13   ar
    23    13    14   ar
    24    14    15   ar
    25    13    16    1
    26    16    17    1
    27    17    18    1
    28    18    19    1
    29     4     5    1
    30     5     6    1
    31    30    31   ar
    32    31    32   ar
    33    32    22   ar
    34    31    25   ar
    35     6     1    1
    36    15    10   ar
    37    19    12    1
    38     7     8    1
@<TRIPOS>MOLECULE
*****
 34 38 0 0 0
SMALL
GASTEIGER

@<TRIPOS>ATOM
      1 N         142.9145  144.2378  162.5676 N.3     1  UNL1       -0.2710
      2 C         142.2222  144.8052  163.7712 C.3     1  UNL1        0.0735
      3 C         140.7555  145.1146  163.7164 C.3     1  UNL1        0.0331
      4 C         139.9811  144.8567  162.4580 C.3     1  UNL1        0.0570
      5 C         140.6734  144.2893  161.2543 C.3     1  UNL1        0.0331
      6 C         142.1401  143.9799  161.3091 C.3     1  UNL1        0.0735
      7 N         138.5143  145.1661  162.4031 N.3     1  UNL1       -0.2934
      8 H         138.2596  145.2110  161.4165 H       1  UNL1        0.1236
      9 C         137.5290  144.2480  163.0635 C.3     1  UNL1        0.1152
     10 C         137.7448  142.7641  163.0261 C.ar    1  UNL1        0.0782
     11 C         137.9773  142.0077  164.3004 C.ar    1  UNL1        0.0562
     12 C         138.1932  140.5238  164.2630 C.ar    1  UNL1        0.1752
     13 C         138.1765  139.7963  162.9513 C.ar    1  UNL1        0.1914
     14 C         137.9440  140.5527  161.6770 C.ar    1  UNL1        0.1384
     15 N         137.7281  142.0367  161.7145 N.ar    1  UNL1       -0.2434
     16 O         138.3923  138.3124  162.9139 O.3     1  UNL1       -0.4668
     17 C         138.6249  137.5560  164.1882 C.3     1  UNL1        0.2527
     18 C         138.6415  138.2834  165.4998 C.3     1  UNL1        0.2526
     19 O         138.4257  139.7674  165.5372 O.3     1  UNL1       -0.4683
     20 C         144.3812  143.9284  162.6224 C.3     1  UNL1        0.0970
     21 C         144.8476  142.5905  163.1150 C.3     1  UNL1        0.1263
     22 C         143.1440  141.9237  167.2264 C.ar    1  UNL1        0.1402
     23 C         142.1524  140.8223  167.4577 C.ar    1  UNL1        0.0370
     24 C         141.7286  139.9432  166.3186 C.ar    1  UNL1        0.0045
     25 C         142.2964  140.1655  164.9482 C.ar    1  UNL1        0.0162
     26 C         141.8725  139.2864  163.8091 C.ar    1  UNL1        0.0063
     27 C         142.4404  139.5086  162.4387 C.ar    1  UNL1        0.0608
     28 C         143.4321  140.6101  162.2073 C.ar    1  UNL1        0.2610
     29 O         143.9999  140.8323  160.8368 O.2     1  UNL1       -0.2670
     30 N         143.8559  141.4892  163.3464 N.ar    1  UNL1       -0.2940
     31 C         143.2880  141.2668  164.7169 C.ar    1  UNL1        0.0655
     32 C         143.7119  142.1459  165.8560 C.ar    1  UNL1        0.0541
     33 C         143.7592  142.2178  169.7334 C.3     1  UNL1        0.2525
     34 O         143.5679  142.8028  168.3655 O.3     1  UNL1       -0.4714
@<TRIPOS>BOND
     1    33    34    1
     2    34    22    1
     3    22    23   ar
     4    23    24   ar
     5    24    25   ar
     6    25    26   ar
     7    26    27   ar
     8    27    28   ar
     9    28    29    2
    10    28    30   ar
    11    30    21    1
    12    21    20    1
    13    20     1    1
    14     1     2    1
    15     2     3    1
    16     3     4    1
    17     4     7    1
    18     7     9    1
    19     9    10    1
    20    10    11   ar
    21    11    12   ar
    22    12    13   ar
    23    13    14   ar
    24    14    15   ar
    25    13    16    1
    26    16    17    1
    27    17    18    1
    28    18    19    1
    29     4     5    1
    30     5     6    1
    31    30    31   ar
    32    31    32   ar
    33    32    22   ar
    34    31    25   ar
    35     6     1    1
    36    15    10   ar
    37    19    12    1
    38     7     8    1
@<TRIPOS>MOLECULE
*****
 34 38 0 0 0
SMALL
GASTEIGER

@<TRIPOS>ATOM
      1 N         138.1077  139.9913  162.4314 N.3     1  UNL1       -0.2710
      2 C         137.7765  140.7492  163.6827 C.3     1  UNL1        0.0735
      3 C         137.6652  142.2446  163.6466 C.3     1  UNL1        0.0331
      4 C         137.8851  142.9820  162.3591 C.3     1  UNL1        0.0570
      5 C         138.2162  142.2241  161.1077 C.3     1  UNL1        0.0331
      6 C         138.3275  140.7287  161.1439 C.3     1  UNL1        0.0735
      7 N         137.7738  144.4775  162.3228 N.3     1  UNL1       -0.2934
      8 H         137.0615  144.7364  163.0054 H       1  UNL1        0.1236
      9 C         138.9769  145.3263  162.6094 C.3     1  UNL1        0.1152
     10 C         140.3462  144.7139  162.6000 C.ar    1  UNL1        0.0782
     11 C         140.9682  144.2480  163.8830 C.ar    1  UNL1        0.0562
     12 C         142.3375  143.6357  163.8736 C.ar    1  UNL1        0.1752
     13 C         143.0848  143.4893  162.5812 C.ar    1  UNL1        0.1914
     14 C         142.4627  143.9552  161.2983 C.ar    1  UNL1        0.1384
     15 N         141.0934  144.5675  161.3077 N.ar    1  UNL1       -0.2434
     16 O         144.4540  142.8769  162.5718 O.3     1  UNL1       -0.4668
     17 C         145.0761  142.4110  163.8548 C.3     1  UNL1        0.2527
     18 C         144.3289  142.5575  165.1471 C.3     1  UNL1        0.2526
     19 O         142.9595  143.1698  165.1566 O.3     1  UNL1       -0.4683
     20 C         138.2189  138.4958  162.4676 C.3     1  UNL1        0.0970
     21 C         138.9605  137.8258  163.5862 C.3     1  UNL1        0.1263
     22 C         139.9649  139.6078  167.5944 C.ar    1  UNL1        0.1402
     23 C         141.3767  140.0087  167.9043 C.ar    1  UNL1        0.0370
     24 C         142.4537  139.8155  166.8783 C.ar    1  UNL1        0.0045
     25 C         142.1189  139.2216  165.5422 C.ar    1  UNL1        0.0162
     26 C         143.1959  139.0284  164.5162 C.ar    1  UNL1        0.0063
     27 C         142.8611  138.4344  163.1801 C.ar    1  UNL1        0.0608
     28 C         141.4492  138.0335  162.8701 C.ar    1  UNL1        0.2610
     29 O         141.1144  137.4395  161.5341 O.2     1  UNL1       -0.2670
     30 N         140.3722  138.2267  163.8962 N.ar    1  UNL1       -0.2940
     31 C         140.7071  138.8207  165.2323 C.ar    1  UNL1        0.0655
     32 C         139.6301  139.0138  166.2583 C.ar    1  UNL1        0.0541
     33 C         139.1600  140.6180  169.8486 C.3     1  UNL1        0.2525
     34 O         138.8879  139.8009  168.6204 O.3     1  UNL1       -0.4714
@<TRIPOS>BOND
     1    33    34    1
     2    34    22    1
     3    22    23   ar
     4    23    24   ar
     5    24    25   ar
     6    25    26   ar
     7    26    27   ar
     8    27    28   ar
     9    28    29    2
    10    28    30   ar
    11    30    21    1
    12    21    20    1
    13    20     1    1
    14     1     2    1
    15     2     3    1
    16     3     4    1
    17     4     7    1
    18     7     9    1
    19     9    10    1
    20    10    11   ar
    21    11    12   ar
    22    12    13   ar
    23    13    14   ar
    24    14    15   ar
    25    13    16    1
    26    16    17    1
    27    17    18    1
    28    18    19    1
    29     4     5    1
    30     5     6    1
    31    30    31   ar
    32    31    32   ar
    33    32    22   ar
    34    31    25   ar
    35     6     1    1
    36    15    10   ar
    37    19    12    1
    38     7     8    1
@<TRIPOS>MOLECULE
*****
 34 38 0 0 0
SMALL
GASTEIGER

@<TRIPOS>ATOM
      1 N         143.0707  144.0903  162.5867 N.3     1  UNL1       -0.2710
      2 C         142.2380  143.4976  161.4889 C.3     1  UNL1        0.0735
      3 C         140.7823  143.8433  161.3816 C.3     1  UNL1        0.0331
      4 C         140.1594  144.7818  162.3721 C.3     1  UNL1        0.0570
      5 C         140.9922  145.3745  163.4700 C.3     1  UNL1        0.0331
      6 C         142.4478  145.0288  163.5773 C.3     1  UNL1        0.0735
      7 N         138.7037  145.1275  162.2649 N.3     1  UNL1       -0.2934
      8 H         138.4486  145.0261  161.2825 H       1  UNL1        0.1236
      9 C         137.6895  144.3572  163.0574 C.3     1  UNL1        0.1152
     10 C         137.9221  142.9078  163.3658 C.ar    1  UNL1        0.0782
     11 C         137.7923  141.8800  162.2810 C.ar    1  UNL1        0.0562
     12 C         138.0249  140.4306  162.5894 C.ar    1  UNL1        0.1752
     13 C         138.3872  140.0090  163.9826 C.ar    1  UNL1        0.1914
     14 C         138.5169  141.0368  165.0674 C.ar    1  UNL1        0.1384
     15 N         138.2844  142.4863  164.7590 N.ar    1  UNL1       -0.2434
     16 O         138.6197  138.5596  164.2910 O.3     1  UNL1       -0.4668
     17 C         138.4900  137.5318  163.2062 C.3     1  UNL1        0.2527
     18 C         138.1277  137.9534  161.8130 C.3     1  UNL1        0.2526
     19 O         137.8951  139.4028  161.5046 O.3     1  UNL1       -0.4683
     20 C         144.5264  143.7446  162.6940 C.3     1  UNL1        0.0970
     21 C         144.9529  142.5206  163.4490 C.3     1  UNL1        0.1263
     22 C         142.7234  138.6127  163.3630 C.ar    1  UNL1        0.1402
     23 C         141.9474  138.1653  164.5661 C.ar    1  UNL1        0.0370
     24 C         141.9145  139.0206  165.7980 C.ar    1  UNL1        0.0045
     25 C         142.6576  140.3232  165.8267 C.ar    1  UNL1        0.0162
     26 C         142.6248  141.1785  167.0585 C.ar    1  UNL1        0.0063
     27 C         143.3679  142.4811  167.0872 C.ar    1  UNL1        0.0608
     28 C         144.1440  142.9285  165.8840 C.ar    1  UNL1        0.2610
     29 O         144.8871  144.2312  165.9127 O.2     1  UNL1       -0.2670
     30 N         144.1769  142.0733  164.6522 N.ar    1  UNL1       -0.2940
     31 C         143.4337  140.7706  164.6235 C.ar    1  UNL1        0.0655
     32 C         143.4665  139.9153  163.3917 C.ar    1  UNL1        0.0541
     33 C         143.9106  137.8583  161.1787 C.3     1  UNL1        0.2525
     34 O         142.7563  137.7574  162.1312 O.3     1  UNL1       -0.4714
@<TRIPOS>BOND
     1    33    34    1
     2    34    22    1
     3    22    23   ar
     4    23    24   ar
     5    24    25   ar
     6    25    26   ar
     7    26    27   ar
     8    27    28   ar
     9    28    29    2
    10    28    30   ar
    11    30    21    1
    12    21    20    1
    13    20     1    1
    14     1     2    1
    15     2     3    1
    16     3     4    1
    17     4     7    1
    18     7     9    1
    19     9    10    1
    20    10    11   ar
    21    11    12   ar
    22    12    13   ar
    23    13    14   ar
    24    14    15   ar
    25    13    16    1
    26    16    17    1
    27    17    18    1
    28    18    19    1
    29     4     5    1
    30     5     6    1
    31    30    31   ar
    32    31    32   ar
    33    32    22   ar
    34    31    25   ar
    35     6     1    1
    36    15    10   ar
    37    19    12    1
    38     7     8    1
@<TRIPOS>MOLECULE
*****
 34 38 0 0 0
SMALL
GASTEIGER

@<TRIPOS>ATOM
      1 N         142.9750  141.4105  166.3659 N.3     1  UNL1       -0.2710
      2 C         143.3362  142.1824  165.1315 C.3     1  UNL1        0.0735
      3 C         143.8764  141.4653  163.9298 C.3     1  UNL1        0.0331
      4 C         144.0552  139.9764  163.9626 C.3     1  UNL1        0.0570
      5 C         143.6940  139.2046  165.1970 C.3     1  UNL1        0.0331
      6 C         143.1539  139.9216  166.3986 C.3     1  UNL1        0.0735
      7 N         144.5954  139.2593  162.7608 N.3     1  UNL1       -0.2934
      8 H         145.4852  138.8461  163.0398 H       1  UNL1        0.1236
      9 C         143.7941  138.1673  162.1161 C.3     1  UNL1        0.1152
     10 C         142.3047  138.2998  161.9978 C.ar    1  UNL1        0.0782
     11 C         141.7131  139.2419  160.9916 C.ar    1  UNL1        0.0562
     12 C         140.2237  139.3745  160.8733 C.ar    1  UNL1        0.1752
     13 C         139.3258  138.5648  161.7613 C.ar    1  UNL1        0.1914
     14 C         139.9174  137.6227  162.7675 C.ar    1  UNL1        0.1384
     15 N         141.4069  137.4902  162.8857 N.ar    1  UNL1       -0.2434
     16 O         137.8364  138.6973  161.6429 O.3     1  UNL1       -0.4668
     17 C         137.2448  139.6394  160.6367 C.3     1  UNL1        0.2527
     18 C         138.1426  140.4490  159.7488 C.3     1  UNL1        0.2526
     19 O         139.6321  140.3166  159.8671 O.3     1  UNL1       -0.4683
     20 C         142.4348  142.1277  167.5676 C.3     1  UNL1        0.0970
     21 C         140.9577  142.3468  167.7090 C.3     1  UNL1        0.1263
     22 C         139.1376  143.8715  163.8863 C.ar    1  UNL1        0.1402
     23 C         138.1753  143.0136  163.1195 C.ar    1  UNL1        0.0370
     24 C         137.8197  141.6476  163.6269 C.ar    1  UNL1        0.0045
     25 C         138.4263  141.1394  164.9011 C.ar    1  UNL1        0.0162
     26 C         138.0707  139.7733  165.4085 C.ar    1  UNL1        0.0063
     27 C         138.6774  139.2651  166.6827 C.ar    1  UNL1        0.0608
     28 C         139.6398  140.1230  167.4496 C.ar    1  UNL1        0.2610
     29 O         140.2465  139.6147  168.7237 O.2     1  UNL1       -0.2670
     30 N         139.9954  141.4890  166.9422 N.ar    1  UNL1       -0.2940
     31 C         139.3886  141.9972  165.6679 C.ar    1  UNL1        0.0655
     32 C         139.7443  143.3633  165.1605 C.ar    1  UNL1        0.0541
     33 C         139.8533  145.4313  161.9358 C.3     1  UNL1        0.2525
     34 O         139.4932  145.2375  163.3790 O.3     1  UNL1       -0.4714
@<TRIPOS>BOND
     1    33    34    1
     2    34    22    1
     3    22    23   ar
     4    23    24   ar
     5    24    25   ar
     6    25    26   ar
     7    26    27   ar
     8    27    28   ar
     9    28    29    2
    10    28    30   ar
    11    30    21    1
    12    21    20    1
    13    20     1    1
    14     1     2    1
    15     2     3    1
    16     3     4    1
    17     4     7    1
    18     7     9    1
    19     9    10    1
    20    10    11   ar
    21    11    12   ar
    22    12    13   ar
    23    13    14   ar
    24    14    15   ar
    25    13    16    1
    26    16    17    1
    27    17    18    1
    28    18    19    1
    29     4     5    1
    30     5     6    1
    31    30    31   ar
    32    31    32   ar
    33    32    22   ar
    34    31    25   ar
    35     6     1    1
    36    15    10   ar
    37    19    12    1
    38     7     8    1
@<TRIPOS>MOLECULE
*****
 34 38 0 0 0
SMALL
GASTEIGER

@<TRIPOS>ATOM
      1 N         144.5196  140.1571  163.4606 N.3     1  UNL1       -0.2710
      2 C         144.1321  140.0035  162.0197 C.3     1  UNL1        0.0735
      3 C         143.0539  139.0354  161.6321 C.3     1  UNL1        0.0331
      4 C         142.3632  138.2209  162.6855 C.3     1  UNL1        0.0570
      5 C         142.7507  138.3746  164.1264 C.3     1  UNL1        0.0331
      6 C         143.8289  139.3426  164.5140 C.3     1  UNL1        0.0735
      7 N         141.2849  137.2528  162.2979 N.3     1  UNL1       -0.2934
      8 H         141.4377  136.4067  162.8468 H       1  UNL1        0.1236
      9 C         139.8429  137.6272  162.4717 C.3     1  UNL1        0.1152
     10 C         139.4129  139.0542  162.3020 C.ar    1  UNL1        0.0782
     11 C         138.8705  139.8184  163.4733 C.ar    1  UNL1        0.0562
     12 C         138.4404  141.2454  163.3036 C.ar    1  UNL1        0.1752
     13 C         138.5528  141.9082  161.9626 C.ar    1  UNL1        0.1914
     14 C         139.0952  141.1440  160.7914 C.ar    1  UNL1        0.1384
     15 N         139.5252  139.7169  160.9611 N.ar    1  UNL1       -0.2434
     16 O         138.1228  143.3351  161.7929 O.3     1  UNL1       -0.4668
     17 C         137.5804  144.0993  162.9642 C.3     1  UNL1        0.2527
     18 C         137.4680  143.4366  164.3051 C.3     1  UNL1        0.2526
     19 O         137.8980  142.0096  164.4748 O.3     1  UNL1       -0.4683
     20 C         145.5978  141.1253  163.8482 C.3     1  UNL1        0.0970
     21 C         145.2363  142.5096  164.2987 C.3     1  UNL1        0.1263
     22 C         142.3064  142.0448  167.6824 C.ar    1  UNL1        0.1402
     23 C         140.8988  142.5398  167.5290 C.ar    1  UNL1        0.0370
     24 C         140.4678  143.1897  166.2477 C.ar    1  UNL1        0.0045
     25 C         141.4444  143.3446  165.1197 C.ar    1  UNL1        0.0162
     26 C         141.0134  143.9945  163.8384 C.ar    1  UNL1        0.0063
     27 C         141.9900  144.1495  162.7105 C.ar    1  UNL1        0.0608
     28 C         143.3977  143.6545  162.8639 C.ar    1  UNL1        0.2610
     29 O         144.3742  143.8094  161.7360 O.2     1  UNL1       -0.2670
     30 N         143.8287  143.0046  164.1452 N.ar    1  UNL1       -0.2940
     31 C         142.8520  142.8496  165.2732 C.ar    1  UNL1        0.0655
     32 C         143.2830  142.1997  166.5545 C.ar    1  UNL1        0.0541
     33 C         143.7001  142.0977  169.8744 C.3     1  UNL1        0.2525
     34 O         142.7374  141.3949  168.9638 O.3     1  UNL1       -0.4714
@<TRIPOS>BOND
     1    33    34    1
     2    34    22    1
     3    22    23   ar
     4    23    24   ar
     5    24    25   ar
     6    25    26   ar
     7    26    27   ar
     8    27    28   ar
     9    28    29    2
    10    28    30   ar
    11    30    21    1
    12    21    20    1
    13    20     1    1
    14     1     2    1
    15     2     3    1
    16     3     4    1
    17     4     7    1
    18     7     9    1
    19     9    10    1
    20    10    11   ar
    21    11    12   ar
    22    12    13   ar
    23    13    14   ar
    24    14    15   ar
    25    13    16    1
    26    16    17    1
    27    17    18    1
    28    18    19    1
    29     4     5    1
    30     5     6    1
    31    30    31   ar
    32    31    32   ar
    33    32    22   ar
    34    31    25   ar
    35     6     1    1
    36    15    10   ar
    37    19    12    1
    38     7     8    1
@<TRIPOS>MOLECULE
*****
 34 38 0 0 0
SMALL
GASTEIGER

@<TRIPOS>ATOM
      1 N         143.0180  144.0801  162.4186 N.3     1  UNL1       -0.2710
      2 C         142.4122  144.8612  163.5468 C.3     1  UNL1        0.0735
      3 C         140.9544  145.2132  163.5175 C.3     1  UNL1        0.0331
      4 C         140.1025  144.7841  162.3599 C.3     1  UNL1        0.0570
      5 C         140.7083  144.0030  161.2317 C.3     1  UNL1        0.0331
      6 C         142.1660  143.6510  161.2610 C.3     1  UNL1        0.0735
      7 N         138.6446  145.1361  162.3305 N.3     1  UNL1       -0.2934
      8 H         138.3588  145.1254  161.3515 H       1  UNL1        0.1236
      9 C         137.6546  144.2944  163.0798 C.3     1  UNL1        0.1152
     10 C         137.8473  142.8095  163.1679 C.ar    1  UNL1        0.0782
     11 C         138.1122  142.1650  164.4962 C.ar    1  UNL1        0.0562
     12 C         138.3050  140.6801  164.5842 C.ar    1  UNL1        0.1752
     13 C         138.2328  139.8396  163.3439 C.ar    1  UNL1        0.1914
     14 C         137.9679  140.4840  162.0156 C.ar    1  UNL1        0.1384
     15 N         137.7752  141.9690  161.9276 N.ar    1  UNL1       -0.2434
     16 O         138.4256  138.3546  163.4319 O.3     1  UNL1       -0.4668
     17 C         138.6905  137.7101  164.7603 C.3     1  UNL1        0.2527
     18 C         138.7626  138.5506  166.0006 C.3     1  UNL1        0.2526
     19 O         138.5699  140.0356  165.9126 O.3     1  UNL1       -0.4683
     20 C         144.4759  143.7280  162.4479 C.3     1  UNL1        0.0970
     21 C         144.9546  142.5851  163.2933 C.3     1  UNL1        0.1263
     22 C         143.4152  139.1753  160.7926 C.ar    1  UNL1        0.1402
     23 C         142.4279  138.2062  161.3722 C.ar    1  UNL1        0.0370
     24 C         141.9537  138.3737  162.7854 C.ar    1  UNL1        0.0045
     25 C         142.4668  139.5102  163.6190 C.ar    1  UNL1        0.0162
     26 C         141.9926  139.6777  165.0321 C.ar    1  UNL1        0.0063
     27 C         142.5057  140.8143  165.8657 C.ar    1  UNL1        0.0608
     28 C         143.4931  141.7835  165.2861 C.ar    1  UNL1        0.2610
     29 O         144.0062  142.9201  166.1196 O.2     1  UNL1       -0.2670
     30 N         143.9673  141.6160  163.8729 N.ar    1  UNL1       -0.2940
     31 C         143.4541  140.4793  163.0393 C.ar    1  UNL1        0.0655
     32 C         143.9283  140.3119  161.6261 C.ar    1  UNL1        0.0541
     33 C         142.9117  138.6593  158.2966 C.3     1  UNL1        0.2525
     34 O         143.8894  139.0078  159.3794 O.3     1  UNL1       -0.4714
@<TRIPOS>BOND
     1    33    34    1
     2    34    22    1
     3    22    23   ar
     4    23    24   ar
     5    24    25   ar
     6    25    26   ar
     7    26    27   ar
     8    27    28   ar
     9    28    29    2
    10    28    30   ar
    11    30    21    1
    12    21    20    1
    13    20     1    1
    14     1     2    1
    15     2     3    1
    16     3     4    1
    17     4     7    1
    18     7     9    1
    19     9    10    1
    20    10    11   ar
    21    11    12   ar
    22    12    13   ar
    23    13    14   ar
    24    14    15   ar
    25    13    16    1
    26    16    17    1
    27    17    18    1
    28    18    19    1
    29     4     5    1
    30     5     6    1
    31    30    31   ar
    32    31    32   ar
    33    32    22   ar
    34    31    25   ar
    35     6     1    1
    36    15    10   ar
    37    19    12    1
    38     7     8    1
@<TRIPOS>MOLECULE
*****
 34 38 0 0 0
SMALL
GASTEIGER

@<TRIPOS>ATOM
      1 N         141.6730  138.2115  164.2267 N.3     1  UNL1       -0.2710
      2 C         142.7545  138.5314  165.2157 C.3     1  UNL1        0.0735
      3 C         143.9825  139.2695  164.7716 C.3     1  UNL1        0.0331
      4 C         144.1289  139.6877  163.3386 C.3     1  UNL1        0.0570
      5 C         143.0474  139.3679  162.3497 C.3     1  UNL1        0.0331
      6 C         141.8194  138.6298  162.7937 C.3     1  UNL1        0.0735
      7 N         145.3570  140.4259  162.8945 N.3     1  UNL1       -0.2934
      8 H         145.4200  140.3107  161.8830 H       1  UNL1        0.1236
      9 C         145.4912  141.8938  163.1724 C.3     1  UNL1        0.1152
     10 C         144.2896  142.7870  163.0830 C.ar    1  UNL1        0.0782
     11 C         143.7559  143.1943  161.7416 C.ar    1  UNL1        0.0562
     12 C         142.5542  144.0875  161.6521 C.ar    1  UNL1        0.1752
     13 C         141.8861  144.5736  162.9042 C.ar    1  UNL1        0.1914
     14 C         142.4198  144.1663  164.2456 C.ar    1  UNL1        0.1384
     15 N         143.6216  143.2730  164.3349 N.ar    1  UNL1       -0.2434
     16 O         140.6845  145.4668  162.8148 O.3     1  UNL1       -0.4668
     17 C         140.1508  145.8741  161.4734 C.3     1  UNL1        0.2527
     18 C         140.8188  145.3881  160.2214 C.3     1  UNL1        0.2526
     19 O         142.0206  144.4948  160.3107 O.3     1  UNL1       -0.4683
     20 C         140.4449  137.4734  164.6709 C.3     1  UNL1        0.0970
     21 C         139.2716  138.2308  165.2182 C.3     1  UNL1        0.1263
     22 C         140.8564  140.9656  168.4212 C.ar    1  UNL1        0.1402
     23 C         140.7755  142.4529  168.2449 C.ar    1  UNL1        0.0370
     24 C         140.1662  143.0287  167.0010 C.ar    1  UNL1        0.0045
     25 C         139.6379  142.1172  165.9334 C.ar    1  UNL1        0.0162
     26 C         139.0287  142.6930  164.6895 C.ar    1  UNL1        0.0063
     27 C         138.5004  141.7814  163.6219 C.ar    1  UNL1        0.0608
     28 C         138.5814  140.2939  163.7981 C.ar    1  UNL1        0.2610
     29 O         138.0531  139.3824  162.7304 O.2     1  UNL1       -0.2670
     30 N         139.1906  139.7181  165.0420 N.ar    1  UNL1       -0.2940
     31 C         139.7189  140.6298  166.1096 C.ar    1  UNL1        0.0655
     32 C         140.3281  140.0540  167.3535 C.ar    1  UNL1        0.0541
     33 C         140.9863  140.8406  171.0130 C.3     1  UNL1        0.2525
     34 O         141.4657  140.3898  169.6651 O.3     1  UNL1       -0.4714
@<TRIPOS>BOND
     1    33    34    1
     2    34    22    1
     3    22    23   ar
     4    23    24   ar
     5    24    25   ar
     6    25    26   ar
     7    26    27   ar
     8    27    28   ar
     9    28    29    2
    10    28    30   ar
    11    30    21    1
    12    21    20    1
    13    20     1    1
    14     1     2    1
    15     2     3    1
    16     3     4    1
    17     4     7    1
    18     7     9    1
    19     9    10    1
    20    10    11   ar
    21    11    12   ar
    22    12    13   ar
    23    13    14   ar
    24    14    15   ar
    25    13    16    1
    26    16    17    1
    27    17    18    1
    28    18    19    1
    29     4     5    1
    30     5     6    1
    31    30    31   ar
    32    31    32   ar
    33    32    22   ar
    34    31    25   ar
    35     6     1    1
    36    15    10   ar
    37    19    12    1
    38     7     8    1
@<TRIPOS>MOLECULE
*****
 34 38 0 0 0
SMALL
GASTEIGER

@<TRIPOS>ATOM
      1 N         143.0010  144.0562  162.3373 N.3     1  UNL1       -0.2710
      2 C         143.0090  143.2046  161.1025 C.3     1  UNL1        0.0735
      3 C         141.7569  143.0476  160.2917 C.3     1  UNL1        0.0331
      4 C         140.4968  143.7420  160.7157 C.3     1  UNL1        0.0570
      5 C         140.4888  144.5936  161.9505 C.3     1  UNL1        0.0331
      6 C         141.7409  144.7507  162.7613 C.3     1  UNL1        0.0735
      7 N         139.2446  143.5850  159.9049 N.3     1  UNL1       -0.2934
      8 H         139.5234  143.6130  158.9241 H       1  UNL1        0.1236
      9 C         138.3877  142.3659  160.0768 C.3     1  UNL1        0.1152
     10 C         138.2687  141.7167  161.4238 C.ar    1  UNL1        0.0782
     11 C         138.8817  140.3688  161.6635 C.ar    1  UNL1        0.0562
     12 C         138.7628  139.7196  163.0105 C.ar    1  UNL1        0.1752
     13 C         138.0308  140.4184  164.1178 C.ar    1  UNL1        0.1914
     14 C         137.4179  141.7663  163.8781 C.ar    1  UNL1        0.1384
     15 N         137.5368  142.4154  162.5311 N.ar    1  UNL1       -0.2434
     16 O         137.9119  139.7692  165.4648 O.3     1  UNL1       -0.4668
     17 C         138.5248  138.4213  165.7045 C.3     1  UNL1        0.2527
     18 C         139.2567  137.7226  164.5972 C.3     1  UNL1        0.2526
     19 O         139.3757  138.3717  163.2502 O.3     1  UNL1       -0.4683
     20 C         144.2532  144.2133  163.1482 C.3     1  UNL1        0.0970
     21 C         144.3374  143.6157  164.5214 C.3     1  UNL1        0.1263
     22 C         141.2500  141.9670  167.3498 C.ar    1  UNL1        0.1402
     23 C         141.1156  140.4842  167.5320 C.ar    1  UNL1        0.0370
     24 C         142.0103  139.5510  166.7714 C.ar    1  UNL1        0.0045
     25 C         143.0394  140.1005  165.8286 C.ar    1  UNL1        0.0162
     26 C         143.9342  139.1672  165.0681 C.ar    1  UNL1        0.0063
     27 C         144.9633  139.7168  164.1253 C.ar    1  UNL1        0.0608
     28 C         145.0977  141.1996  163.9430 C.ar    1  UNL1        0.2610
     29 O         146.1268  141.7491  163.0003 O.2     1  UNL1       -0.2670
     30 N         144.2030  142.1329  164.7036 N.ar    1  UNL1       -0.2940
     31 C         143.1738  141.5833  165.6464 C.ar    1  UNL1        0.0655
     32 C         142.2791  142.5165  166.4070 C.ar    1  UNL1        0.0541
     33 C         140.3913  142.9183  169.6098 C.3     1  UNL1        0.2525
     34 O         140.3552  142.9003  168.1104 O.3     1  UNL1       -0.4714
@<TRIPOS>BOND
     1    33    34    1
     2    34    22    1
     3    22    23   ar
     4    23    24   ar
     5    24    25   ar
     6    25    26   ar
     7    26    27   ar
     8    27    28   ar
     9    28    29    2
    10    28    30   ar
    11    30    21    1
    12    21    20    1
    13    20     1    1
    14     1     2    1
    15     2     3    1
    16     3     4    1
    17     4     7    1
    18     7     9    1
    19     9    10    1
    20    10    11   ar
    21    11    12   ar
    22    12    13   ar
    23    13    14   ar
    24    14    15   ar
    25    13    16    1
    26    16    17    1
    27    17    18    1
    28    18    19    1
    29     4     5    1
    30     5     6    1
    31    30    31   ar
    32    31    32   ar
    33    32    22   ar
    34    31    25   ar
    35     6     1    1
    36    15    10   ar
    37    19    12    1
    38     7     8    1
