@<TRIPOS>MOLECULE
*****
 35 38 0 0 0
SMALL
GASTEIGER

@<TRIPOS>ATOM
      1 C         141.7651  140.3146  163.2023 C.3     1  UNL1        0.0413
      2 C         141.6251  140.6784  161.7539 C.3     1  UNL1        0.0765
      3 N         142.9857  141.0333  161.2315 N.3     1  UNL1       -0.2723
      4 C         143.9665  140.8889  162.3571 C.3     1  UNL1        0.0741
      5 C         143.2121  140.4447  163.5752 C.3     1  UNL1        0.0410
      6 C         138.4294  139.0542  165.9473 C.ar    1  UNL1        0.1387
      7 C         138.8005  140.5031  165.8341 C.ar    1  UNL1        0.0366
      8 C         139.9124  140.9232  164.9191 C.ar    1  UNL1       -0.0011
      9 C         140.6532  139.8945  164.1173 C.ar    1  UNL1       -0.0209
     10 C         140.2820  138.4456  164.2305 C.ar    1  UNL1       -0.0011
     11 C         139.1701  138.0254  165.1455 C.ar    1  UNL1        0.0366
     12 C         137.1494  137.1880  167.2236 C.3     1  UNL1        0.2525
     13 O         137.3175  138.6341  166.8622 O.3     1  UNL1       -0.4714
     14 C         143.3087  141.4581  159.8296 C.3     1  UNL1        0.0721
     15 C         143.3202  142.9145  159.4711 C.3     1  UNL1        0.0173
     16 C         142.0361  143.6892  159.4391 C.3     1  UNL1        0.0015
     17 C         141.6067  144.4793  160.6398 C.3     1  UNL1        0.0028
     18 C         140.4073  145.3760  160.5577 C.3     1  UNL1        0.0171
     19 C         139.9780  146.1661  161.7585 C.3     1  UNL1        0.0686
     20 N         140.7482  146.0593  163.0411 N.3     1  UNL1       -0.2975
     21 C         141.9477  145.1624  163.1232 C.3     1  UNL1        0.0686
     22 C         142.3770  144.3724  161.9225 C.3     1  UNL1        0.0171
     23 H         140.0917  145.7388  163.7530 H       1  UNL1        0.1232
     24 C         143.8014  140.1776  164.9285 C.3     1  UNL1        0.0914
     25 N         143.2111  140.8268  166.1450 N.am    1  UNL1       -0.3008
     26 C         142.9997  140.0251  167.3950 C.2     1  UNL1        0.2459
     27 O         143.3787  138.5741  167.4286 O.2     1  UNL1       -0.2701
     28 H         142.9624  141.7791  166.1230 H       1  UNL1        0.1497
     29 C         142.4094  140.6743  168.6116 C.ar    1  UNL1        0.0542
     30 C         142.5523  140.0211  169.9543 C.ar    1  UNL1        0.0046
     31 C         141.9620  140.6704  171.1708 C.ar    1  UNL1        0.0010
     32 C         141.2288  141.9728  171.0448 C.ar    1  UNL1        0.0114
     33 C         141.0859  142.6260  169.7020 C.ar    1  UNL1        0.0578
     34 CL        140.3526  143.9286  169.5759 Cl      1  UNL1       -0.0822
     35 C         141.6762  141.9768  168.4855 C.ar    1  UNL1        0.0159
@<TRIPOS>BOND
     1    12    13    1
     2    13     6    1
     3     6     7   ar
     4     7     8   ar
     5     8     9   ar
     6     1     9    1
     7     1     2    1
     8     2     3    1
     9     3    14    1
    10    14    15    1
    11    15    16    1
    12    16    17    1
    13    17    18    1
    14    18    19    1
    15    19    20    1
    16    20    21    1
    17    21    22    1
    18     3     4    1
    19     4     5    1
    20     5    24    1
    21    24    25    1
    22    25    26   am
    23    26    27    2
    24    26    29    1
    25    29    30   ar
    26    30    31   ar
    27    31    32   ar
    28    32    33   ar
    29    33    34    1
    30    33    35   ar
    31     9    10   ar
    32    10    11   ar
    33    11     6   ar
    34     5     1    1
    35    35    29   ar
    36    22    17    1
    37    20    23    1
    38    25    28    1
@<TRIPOS>MOLECULE
*****
 35 38 0 0 0
SMALL
GASTEIGER

@<TRIPOS>ATOM
      1 C         140.2618  144.1844  160.7918 C.3     1  UNL1        0.0413
      2 C         141.1145  145.1806  160.0635 C.3     1  UNL1        0.0765
      3 N         140.8282  145.0513  158.5967 N.3     1  UNL1       -0.2723
      4 C         139.7985  143.9752  158.4185 C.3     1  UNL1        0.0741
      5 C         139.4485  143.4394  159.7751 C.3     1  UNL1        0.0410
      6 C         140.1611  143.5432  165.2447 C.ar    1  UNL1        0.1387
      7 C         141.2048  142.8598  164.4120 C.ar    1  UNL1        0.0366
      8 C         141.2384  143.0735  162.9277 C.ar    1  UNL1       -0.0011
      9 C         140.2282  143.9707  162.2761 C.ar    1  UNL1       -0.0209
     10 C         139.1845  144.6541  163.1088 C.ar    1  UNL1       -0.0011
     11 C         139.1509  144.4404  164.5931 C.ar    1  UNL1        0.0366
     12 C         140.4157  141.9719  167.2980 C.3     1  UNL1        0.2525
     13 O         140.1276  143.3295  166.7290 O.3     1  UNL1       -0.4714
     14 C         141.4606  145.8567  157.5006 C.3     1  UNL1        0.0721
     15 C         141.1414  145.5529  156.0669 C.3     1  UNL1        0.0173
     16 C         139.8390  146.0059  155.4763 C.3     1  UNL1        0.0015
     17 C         139.5432  147.4709  155.3474 C.3     1  UNL1        0.0028
     18 C         139.9921  148.2223  154.1293 C.3     1  UNL1        0.0171
     19 C         139.6963  149.6872  154.0005 C.3     1  UNL1        0.0686
     20 N         138.9516  150.4006  155.0897 N.3     1  UNL1       -0.2975
     21 C         138.5027  149.6491  156.3078 C.3     1  UNL1        0.0686
     22 C         138.7985  148.1843  156.4366 C.3     1  UNL1        0.0171
     23 H         138.1142  150.7970  154.6630 H       1  UNL1        0.1232
     24 C         138.4588  142.3500  160.0643 C.3     1  UNL1        0.0914
     25 N         138.8285  141.2262  160.9863 N.am    1  UNL1       -0.3008
     26 C         138.1083  141.0589  162.2914 C.2     1  UNL1        0.2459
     27 O         137.0183  142.0154  162.6745 O.2     1  UNL1       -0.2701
     28 H         139.5439  140.5983  160.7349 H       1  UNL1        0.1497
     29 C         138.4781  139.9350  163.2134 C.ar    1  UNL1        0.0542
     30 C         139.1447  138.7066  162.6688 C.ar    1  UNL1        0.0046
     31 C         139.5145  137.5827  163.5909 C.ar    1  UNL1        0.0010
     32 C         139.2177  137.6871  165.0574 C.ar    1  UNL1        0.0114
     33 C         138.5511  138.9156  165.6020 C.ar    1  UNL1        0.0578
     34 CL        138.2542  139.0201  167.0687 Cl      1  UNL1       -0.0822
     35 C         138.1813  140.0394  164.6800 C.ar    1  UNL1        0.0159
@<TRIPOS>BOND
     1    12    13    1
     2    13     6    1
     3     6     7   ar
     4     7     8   ar
     5     8     9   ar
     6     1     9    1
     7     1     2    1
     8     2     3    1
     9     3    14    1
    10    14    15    1
    11    15    16    1
    12    16    17    1
    13    17    18    1
    14    18    19    1
    15    19    20    1
    16    20    21    1
    17    21    22    1
    18     3     4    1
    19     4     5    1
    20     5    24    1
    21    24    25    1
    22    25    26   am
    23    26    27    2
    24    26    29    1
    25    29    30   ar
    26    30    31   ar
    27    31    32   ar
    28    32    33   ar
    29    33    34    1
    30    33    35   ar
    31     9    10   ar
    32    10    11   ar
    33    11     6   ar
    34     5     1    1
    35    35    29   ar
    36    22    17    1
    37    20    23    1
    38    25    28    1
@<TRIPOS>MOLECULE
*****
 35 38 0 0 0
SMALL
GASTEIGER

@<TRIPOS>ATOM
      1 C         142.0737  138.2122  160.9117 C.3     1  UNL1        0.0413
      2 C         142.9788  137.6553  159.8531 C.3     1  UNL1        0.0765
      3 N         142.2805  137.7836  158.5318 N.3     1  UNL1       -0.2723
      4 C         140.9438  138.4198  158.7738 C.3     1  UNL1        0.0741
      5 C         140.8160  138.6847  160.2446 C.3     1  UNL1        0.0410
      6 C         142.9735  138.4277  165.3156 C.ar    1  UNL1        0.1387
      7 C         141.7947  137.6383  164.8287 C.ar    1  UNL1        0.0366
      8 C         141.4948  137.5664  163.3608 C.ar    1  UNL1       -0.0011
      9 C         142.3736  138.2840  162.3797 C.ar    1  UNL1       -0.0209
     10 C         143.5525  139.0735  162.8666 C.ar    1  UNL1       -0.0011
     11 C         143.8524  139.1453  164.3345 C.ar    1  UNL1        0.0366
     12 C         142.6075  139.5394  167.6351 C.3     1  UNL1        0.2525
     13 O         143.2735  138.4995  166.7835 O.3     1  UNL1       -0.4714
     14 C         142.8235  137.3515  157.2020 C.3     1  UNL1        0.0721
     15 C         142.6277  135.9397  156.7348 C.3     1  UNL1        0.0173
     16 C         143.8162  135.0532  156.5078 C.3     1  UNL1        0.0015
     17 C         143.6871  133.5681  156.6758 C.3     1  UNL1        0.0028
     18 C         142.5703  132.8310  155.9984 C.3     1  UNL1        0.0171
     19 C         142.4413  131.3459  156.1664 C.3     1  UNL1        0.0686
     20 N         143.4291  130.5982  157.0120 N.3     1  UNL1       -0.2975
     21 C         144.5460  131.3354  157.6894 C.3     1  UNL1        0.0686
     22 C         144.6750  132.8204  157.5214 C.3     1  UNL1        0.0171
     23 H         143.8614  129.8976  156.4097 H       1  UNL1        0.1232
     24 C         139.6374  139.3119  160.9284 C.3     1  UNL1        0.0914
     25 N         139.8287  140.5229  161.7926 N.am    1  UNL1       -0.3008
     26 C         138.6385  141.3106  162.2540 C.2     1  UNL1        0.2459
     27 O         137.2570  140.8874  161.8512 O.2     1  UNL1       -0.2701
     28 H         140.7354  140.8007  162.0570 H       1  UNL1        0.1497
     29 C         138.8298  142.5216  163.1182 C.ar    1  UNL1        0.0542
     30 C         137.7220  142.9835  164.0179 C.ar    1  UNL1        0.0046
     31 C         137.9133  144.1945  164.8822 C.ar    1  UNL1        0.0010
     32 C         139.2124  144.9436  164.8468 C.ar    1  UNL1        0.0114
     33 C         140.3201  144.4816  163.9471 C.ar    1  UNL1        0.0578
     34 CL        141.6193  145.2308  163.9116 Cl      1  UNL1       -0.0822
     35 C         140.1288  143.2707  163.0828 C.ar    1  UNL1        0.0159
@<TRIPOS>BOND
     1    12    13    1
     2    13     6    1
     3     6     7   ar
     4     7     8   ar
     5     8     9   ar
     6     1     9    1
     7     1     2    1
     8     2     3    1
     9     3    14    1
    10    14    15    1
    11    15    16    1
    12    16    17    1
    13    17    18    1
    14    18    19    1
    15    19    20    1
    16    20    21    1
    17    21    22    1
    18     3     4    1
    19     4     5    1
    20     5    24    1
    21    24    25    1
    22    25    26   am
    23    26    27    2
    24    26    29    1
    25    29    30   ar
    26    30    31   ar
    27    31    32   ar
    28    32    33   ar
    29    33    34    1
    30    33    35   ar
    31     9    10   ar
    32    10    11   ar
    33    11     6   ar
    34     5     1    1
    35    35    29   ar
    36    22    17    1
    37    20    23    1
    38    25    28    1
@<TRIPOS>MOLECULE
*****
 35 38 0 0 0
SMALL
GASTEIGER

@<TRIPOS>ATOM
      1 C         141.1149  138.4559  160.4252 C.3     1  UNL1        0.0413
      2 C         140.4845  138.5097  159.0652 C.3     1  UNL1        0.0765
      3 N         141.5286  138.1359  158.0551 N.3     1  UNL1       -0.2723
      4 C         142.8043  137.8511  158.7908 C.3     1  UNL1        0.0741
      5 C         142.5487  138.0489  160.2556 C.3     1  UNL1        0.0410
      6 C         139.0650  139.3574  164.3284 C.ar    1  UNL1        0.1387
      7 C         139.3324  137.9355  163.9325 C.ar    1  UNL1        0.0366
      8 C         140.0157  137.6351  162.6315 C.ar    1  UNL1       -0.0011
      9 C         140.4316  138.7564  161.7262 C.ar    1  UNL1       -0.0209
     10 C         140.1643  140.1783  162.1221 C.ar    1  UNL1       -0.0011
     11 C         139.4810  140.4788  163.4232 C.ar    1  UNL1        0.0366
     12 C         137.9157  138.5355  166.5086 C.3     1  UNL1        0.2525
     13 O         138.3817  139.6579  165.6295 O.3     1  UNL1       -0.4714
     14 C         141.3314  138.0602  156.5700 C.3     1  UNL1        0.0721
     15 C         142.0754  137.0355  155.7660 C.3     1  UNL1        0.0173
     16 C         141.5085  135.6567  155.5998 C.3     1  UNL1        0.0015
     17 C         142.2257  134.4755  156.1837 C.3     1  UNL1        0.0028
     18 C         141.8548  133.0865  155.7561 C.3     1  UNL1        0.0171
     19 C         142.5719  131.9055  156.3400 C.3     1  UNL1        0.0686
     20 N         143.6599  132.1135  157.3514 N.3     1  UNL1       -0.2975
     21 C         144.0308  133.5027  157.7789 C.3     1  UNL1        0.0686
     22 C         143.3137  134.6837  157.1951 C.3     1  UNL1        0.0171
     23 H         144.5039  131.6883  156.9676 H       1  UNL1        0.1232
     24 C         143.5509  137.8709  161.3574 C.3     1  UNL1        0.0914
     25 N         143.3892  138.6203  162.6466 N.am    1  UNL1       -0.3008
     26 C         143.8060  140.0585  162.7356 C.2     1  UNL1        0.2459
     27 O         144.3844  140.7474  161.5352 O.2     1  UNL1       -0.2701
     28 H         143.0095  138.1682  163.4345 H       1  UNL1        0.1497
     29 C         143.6443  140.8079  164.0249 C.ar    1  UNL1        0.0542
     30 C         142.7966  140.2371  165.1229 C.ar    1  UNL1        0.0046
     31 C         142.6349  140.9865  166.4122 C.ar    1  UNL1        0.0010
     32 C         143.3209  142.3066  166.6035 C.ar    1  UNL1        0.0114
     33 C         144.1686  142.8774  165.5055 C.ar    1  UNL1        0.0578
     34 CL        144.8547  144.1976  165.6969 Cl      1  UNL1       -0.0822
     35 C         144.3303  142.1280  164.2162 C.ar    1  UNL1        0.0159
@<TRIPOS>BOND
     1    12    13    1
     2    13     6    1
     3     6     7   ar
     4     7     8   ar
     5     8     9   ar
     6     1     9    1
     7     1     2    1
     8     2     3    1
     9     3    14    1
    10    14    15    1
    11    15    16    1
    12    16    17    1
    13    17    18    1
    14    18    19    1
    15    19    20    1
    16    20    21    1
    17    21    22    1
    18     3     4    1
    19     4     5    1
    20     5    24    1
    21    24    25    1
    22    25    26   am
    23    26    27    2
    24    26    29    1
    25    29    30   ar
    26    30    31   ar
    27    31    32   ar
    28    32    33   ar
    29    33    34    1
    30    33    35   ar
    31     9    10   ar
    32    10    11   ar
    33    11     6   ar
    34     5     1    1
    35    35    29   ar
    36    22    17    1
    37    20    23    1
    38    25    28    1
@<TRIPOS>MOLECULE
*****
 35 38 0 0 0
SMALL
GASTEIGER

@<TRIPOS>ATOM
      1 C         140.8531  140.8968  162.7011 C.3     1  UNL1        0.0413
      2 C         140.5017  141.1643  161.2676 C.3     1  UNL1        0.0765
      3 N         141.5108  142.1267  160.7148 N.3     1  UNL1       -0.2723
      4 C         142.4858  142.4540  161.8066 C.3     1  UNL1        0.0741
      5 C         142.0794  141.6939  163.0342 C.3     1  UNL1        0.0410
      6 C         138.6207  138.1801  165.5093 C.ar    1  UNL1        0.1387
      7 C         138.2395  139.6270  165.4042 C.ar    1  UNL1        0.0366
      8 C         138.9837  140.5326  164.4682 C.ar    1  UNL1       -0.0011
      9 C         140.1090  139.9912  163.6372 C.ar    1  UNL1       -0.0209
     10 C         140.4901  138.5443  163.7422 C.ar    1  UNL1       -0.0011
     11 C         139.7460  137.6387  164.6783 C.ar    1  UNL1        0.0366
     12 C         137.0417  137.8570  167.5470 C.3     1  UNL1        0.2525
     13 O         137.8765  137.2745  166.4453 O.3     1  UNL1       -0.4714
     14 C         141.5397  142.6669  159.3157 C.3     1  UNL1        0.0721
     15 C         142.1617  141.8617  158.2136 C.3     1  UNL1        0.0173
     16 C         143.4224  141.0898  158.4684 C.3     1  UNL1        0.0015
     17 C         143.3558  139.7350  159.1089 C.3     1  UNL1        0.0028
     18 C         143.9124  139.5284  160.4863 C.3     1  UNL1        0.0171
     19 C         143.8458  138.1736  161.1267 C.3     1  UNL1        0.0686
     20 N         143.2225  137.0255  160.3898 N.3     1  UNL1       -0.2975
     21 C         142.6658  137.2321  159.0123 C.3     1  UNL1        0.0686
     22 C         142.7325  138.5868  158.3718 C.3     1  UNL1        0.0171
     23 H         142.4553  136.6852  160.9694 H       1  UNL1        0.1232
     24 C         142.7767  141.7255  164.3619 C.3     1  UNL1        0.0914
     25 N         142.0091  142.0671  165.6044 N.am    1  UNL1       -0.3008
     26 C         141.7635  141.0169  166.6469 C.2     1  UNL1        0.2459
     27 O         142.2855  139.6250  166.4469 O.2     1  UNL1       -0.2701
     28 H         141.6665  142.9807  165.7357 H       1  UNL1        0.1497
     29 C         140.9958  141.3587  167.8894 C.ar    1  UNL1        0.0542
     30 C         140.1922  140.3027  168.5888 C.ar    1  UNL1        0.0046
     31 C         139.4245  140.6445  169.8313 C.ar    1  UNL1        0.0010
     32 C         139.4604  142.0421  170.3746 C.ar    1  UNL1        0.0114
     33 C         140.2641  143.0981  169.6752 C.ar    1  UNL1        0.0578
     34 CL        140.3001  144.4959  170.2184 Cl      1  UNL1       -0.0822
     35 C         141.0318  142.7564  168.4327 C.ar    1  UNL1        0.0159
@<TRIPOS>BOND
     1    12    13    1
     2    13     6    1
     3     6     7   ar
     4     7     8   ar
     5     8     9   ar
     6     1     9    1
     7     1     2    1
     8     2     3    1
     9     3    14    1
    10    14    15    1
    11    15    16    1
    12    16    17    1
    13    17    18    1
    14    18    19    1
    15    19    20    1
    16    20    21    1
    17    21    22    1
    18     3     4    1
    19     4     5    1
    20     5    24    1
    21    24    25    1
    22    25    26   am
    23    26    27    2
    24    26    29    1
    25    29    30   ar
    26    30    31   ar
    27    31    32   ar
    28    32    33   ar
    29    33    34    1
    30    33    35   ar
    31     9    10   ar
    32    10    11   ar
    33    11     6   ar
    34     5     1    1
    35    35    29   ar
    36    22    17    1
    37    20    23    1
    38    25    28    1
@<TRIPOS>MOLECULE
*****
 35 38 0 0 0
SMALL
GASTEIGER

@<TRIPOS>ATOM
      1 C         142.3869  140.4687  163.4364 C.3     1  UNL1        0.0413
      2 C         141.8011  140.9441  164.7329 C.3     1  UNL1        0.0765
      3 N         141.7495  139.7772  165.6739 N.3     1  UNL1       -0.2723
      4 C         142.3035  138.5805  164.9590 C.3     1  UNL1        0.0741
      5 C         142.6974  139.0079  163.5762 C.3     1  UNL1        0.0410
      6 C         143.0896  142.9833  159.7713 C.ar    1  UNL1        0.1387
      7 C         144.1749  142.8305  160.7954 C.ar    1  UNL1        0.0366
      8 C         143.9406  141.9923  162.0171 C.ar    1  UNL1       -0.0011
      9 C         142.6211  141.3069  162.2147 C.ar    1  UNL1       -0.0209
     10 C         141.5358  141.4598  161.1907 C.ar    1  UNL1       -0.0011
     11 C         141.7701  142.2980  159.9690 C.ar    1  UNL1        0.0366
     12 C         142.1976  144.6164  157.9582 C.3     1  UNL1        0.2525
     13 O         143.3238  143.8215  158.5496 O.3     1  UNL1       -0.4714
     14 C         141.2344  139.8025  167.0824 C.3     1  UNL1        0.0721
     15 C         139.7817  140.0679  167.3451 C.3     1  UNL1        0.0173
     16 C         138.7358  139.1764  166.7439 C.3     1  UNL1        0.0015
     17 C         138.5915  139.0889  165.2533 C.3     1  UNL1        0.0028
     18 C         138.8713  137.7954  164.5475 C.3     1  UNL1        0.0171
     19 C         138.7270  137.7079  163.0569 C.3     1  UNL1        0.0686
     20 N         138.3030  138.9140  162.2724 N.3     1  UNL1       -0.2975
     21 C         138.0233  140.2076  162.9784 C.3     1  UNL1        0.0686
     22 C         138.1675  140.2950  164.4688 C.3     1  UNL1        0.0171
     23 H         137.4487  138.6579  161.7775 H       1  UNL1        0.1232
     24 C         143.2966  138.1287  162.5188 C.3     1  UNL1        0.0914
     25 N         142.4993  137.7723  161.2993 N.am    1  UNL1       -0.3008
     26 C         142.9135  138.2913  159.9543 C.2     1  UNL1        0.2459
     27 O         144.1250  139.1668  159.8288 O.2     1  UNL1       -0.2701
     28 H         141.7042  137.1977  161.3817 H       1  UNL1        0.1497
     29 C         142.1162  137.9349  158.7348 C.ar    1  UNL1        0.0542
     30 C         140.7109  138.4375  158.5842 C.ar    1  UNL1        0.0046
     31 C         139.9136  138.0811  157.3647 C.ar    1  UNL1        0.0010
     32 C         140.5214  137.2220  156.2958 C.ar    1  UNL1        0.0114
     33 C         141.9266  136.7194  156.4464 C.ar    1  UNL1        0.0578
     34 CL        142.5346  135.8603  155.3775 Cl      1  UNL1       -0.0822
     35 C         142.7240  137.0758  157.6659 C.ar    1  UNL1        0.0159
@<TRIPOS>BOND
     1    12    13    1
     2    13     6    1
     3     6     7   ar
     4     7     8   ar
     5     8     9   ar
     6     1     9    1
     7     1     2    1
     8     2     3    1
     9     3    14    1
    10    14    15    1
    11    15    16    1
    12    16    17    1
    13    17    18    1
    14    18    19    1
    15    19    20    1
    16    20    21    1
    17    21    22    1
    18     3     4    1
    19     4     5    1
    20     5    24    1
    21    24    25    1
    22    25    26   am
    23    26    27    2
    24    26    29    1
    25    29    30   ar
    26    30    31   ar
    27    31    32   ar
    28    32    33   ar
    29    33    34    1
    30    33    35   ar
    31     9    10   ar
    32    10    11   ar
    33    11     6   ar
    34     5     1    1
    35    35    29   ar
    36    22    17    1
    37    20    23    1
    38    25    28    1
@<TRIPOS>MOLECULE
*****
 35 38 0 0 0
SMALL
GASTEIGER

@<TRIPOS>ATOM
      1 C         139.5132  143.4430  160.0099 C.3     1  UNL1        0.0413
      2 C         139.2529  143.1544  158.5611 C.3     1  UNL1        0.0765
      3 N         139.7879  144.3017  157.7565 N.3     1  UNL1       -0.2723
      4 C         140.3789  145.2994  158.7080 C.3     1  UNL1        0.0741
      5 C         140.2091  144.7686  160.1006 C.3     1  UNL1        0.0410
      6 C         138.4016  140.7963  163.4754 C.ar    1  UNL1        0.1387
      7 C         137.4832  141.9046  163.0532 C.ar    1  UNL1        0.0366
      8 C         137.8537  142.7868  161.8981 C.ar    1  UNL1       -0.0011
      9 C         139.1427  142.5607  161.1650 C.ar    1  UNL1       -0.0209
     10 C         140.0611  141.4525  161.5871 C.ar    1  UNL1       -0.0011
     11 C         139.6906  140.5703  162.7423 C.ar    1  UNL1        0.0366
     12 C         138.7834  138.6391  164.8720 C.3     1  UNL1        0.2525
     13 O         138.0310  139.9141  164.6305 O.3     1  UNL1       -0.4714
     14 C         139.7403  144.4290  156.2627 C.3     1  UNL1        0.0721
     15 C         139.8914  145.7757  155.6195 C.3     1  UNL1        0.0173
     16 C         138.7130  146.6991  155.5271 C.3     1  UNL1        0.0015
     17 C         138.9144  148.1831  155.6138 C.3     1  UNL1        0.0028
     18 C         139.5971  148.9138  154.4958 C.3     1  UNL1        0.0171
     19 C         139.7985  150.3978  154.5826 C.3     1  UNL1        0.0686
     20 N         139.3173  151.1508  155.7872 N.3     1  UNL1       -0.2975
     21 C         138.6346  150.4200  156.9052 C.3     1  UNL1        0.0686
     22 C         138.4332  148.9361  156.8185 C.3     1  UNL1        0.0171
     23 H         138.6602  151.8550  155.4512 H       1  UNL1        0.1232
     24 C         140.6567  145.4449  161.3625 C.3     1  UNL1        0.0914
     25 N         141.3300  144.6496  162.4414 N.am    1  UNL1       -0.3008
     26 C         140.6412  144.4361  163.7567 C.2     1  UNL1        0.2459
     27 O         139.2790  145.0178  163.9931 O.2     1  UNL1       -0.2701
     28 H         142.2241  144.2678  162.2864 H       1  UNL1        0.1497
     29 C         141.3146  143.6408  164.8356 C.ar    1  UNL1        0.0542
     30 C         142.7915  143.3869  164.7694 C.ar    1  UNL1        0.0046
     31 C         143.4648  142.5916  165.8483 C.ar    1  UNL1        0.0010
     32 C         142.6614  142.0502  166.9935 C.ar    1  UNL1        0.0114
     33 C         141.1846  142.3041  167.0596 C.ar    1  UNL1        0.0578
     34 CL        140.3810  141.7627  168.2048 Cl      1  UNL1       -0.0822
     35 C         140.5112  143.0994  165.9807 C.ar    1  UNL1        0.0159
@<TRIPOS>BOND
     1    12    13    1
     2    13     6    1
     3     6     7   ar
     4     7     8   ar
     5     8     9   ar
     6     1     9    1
     7     1     2    1
     8     2     3    1
     9     3    14    1
    10    14    15    1
    11    15    16    1
    12    16    17    1
    13    17    18    1
    14    18    19    1
    15    19    20    1
    16    20    21    1
    17    21    22    1
    18     3     4    1
    19     4     5    1
    20     5    24    1
    21    24    25    1
    22    25    26   am
    23    26    27    2
    24    26    29    1
    25    29    30   ar
    26    30    31   ar
    27    31    32   ar
    28    32    33   ar
    29    33    34    1
    30    33    35   ar
    31     9    10   ar
    32    10    11   ar
    33    11     6   ar
    34     5     1    1
    35    35    29   ar
    36    22    17    1
    37    20    23    1
    38    25    28    1
@<TRIPOS>MOLECULE
*****
 35 38 0 0 0
SMALL
GASTEIGER

@<TRIPOS>ATOM
      1 C         141.3259  143.1423  165.1955 C.3     1  UNL1        0.0413
      2 C         140.4121  143.0475  166.3812 C.3     1  UNL1        0.0765
      3 N         141.2265  142.6031  167.5599 N.3     1  UNL1       -0.2723
      4 C         142.6438  142.4234  167.1026 C.3     1  UNL1        0.0741
      5 C         142.7052  142.7566  165.6414 C.3     1  UNL1        0.0410
      6 C         140.1381  144.3687  161.0320 C.ar    1  UNL1        0.1387
      7 C         140.0383  142.9309  161.4475 C.ar    1  UNL1        0.0366
      8 C         140.4343  142.5221  162.8354 C.ar    1  UNL1       -0.0011
      9 C         140.9300  143.5511  163.8077 C.ar    1  UNL1       -0.0209
     10 C         141.0297  144.9889  163.3921 C.ar    1  UNL1       -0.0011
     11 C         140.6338  145.3977  162.0043 C.ar    1  UNL1        0.0366
     12 C         140.7513  145.4094  158.7318 C.3     1  UNL1        0.2525
     13 O         139.7422  144.7775  159.6441 O.3     1  UNL1       -0.4714
     14 C         140.7138  142.3781  168.9514 C.3     1  UNL1        0.0721
     15 C         139.9589  141.1240  169.2788 C.3     1  UNL1        0.0173
     16 C         140.3442  139.8263  168.6326 C.3     1  UNL1        0.0015
     17 C         139.9863  139.5670  167.1991 C.3     1  UNL1        0.0028
     18 C         141.0688  139.3774  166.1783 C.3     1  UNL1        0.0171
     19 C         140.7108  139.1182  164.7449 C.3     1  UNL1        0.0686
     20 N         139.2704  139.0484  164.3323 N.3     1  UNL1       -0.2975
     21 C         138.1879  139.2380  165.3532 C.3     1  UNL1        0.0686
     22 C         138.5458  139.4973  166.7866 C.3     1  UNL1        0.0171
     23 H         139.1269  138.1273  163.9185 H       1  UNL1        0.1232
     24 C         143.9307  142.7119  164.7777 C.3     1  UNL1        0.0914
     25 N         143.9103  141.9508  163.4854 N.am    1  UNL1       -0.3008
     26 C         144.0553  142.6803  162.1828 C.2     1  UNL1        0.2459
     27 O         144.2209  144.1710  162.1725 O.2     1  UNL1       -0.2701
     28 H         143.8016  140.9723  163.4921 H       1  UNL1        0.1497
     29 C         144.0349  141.9190  160.8905 C.ar    1  UNL1        0.0542
     30 C         144.4731  142.5856  159.6203 C.ar    1  UNL1        0.0046
     31 C         144.4526  141.8243  158.3280 C.ar    1  UNL1        0.0010
     32 C         143.9939  140.3964  158.3058 C.ar    1  UNL1        0.0114
     33 C         143.5557  139.7297  159.5761 C.ar    1  UNL1        0.0578
     34 CL        143.0969  138.3017  159.5540 Cl      1  UNL1       -0.0822
     35 C         143.5762  140.4910  160.8684 C.ar    1  UNL1        0.0159
@<TRIPOS>BOND
     1    12    13    1
     2    13     6    1
     3     6     7   ar
     4     7     8   ar
     5     8     9   ar
     6     1     9    1
     7     1     2    1
     8     2     3    1
     9     3    14    1
    10    14    15    1
    11    15    16    1
    12    16    17    1
    13    17    18    1
    14    18    19    1
    15    19    20    1
    16    20    21    1
    17    21    22    1
    18     3     4    1
    19     4     5    1
    20     5    24    1
    21    24    25    1
    22    25    26   am
    23    26    27    2
    24    26    29    1
    25    29    30   ar
    26    30    31   ar
    27    31    32   ar
    28    32    33   ar
    29    33    34    1
    30    33    35   ar
    31     9    10   ar
    32    10    11   ar
    33    11     6   ar
    34     5     1    1
    35    35    29   ar
    36    22    17    1
    37    20    23    1
    38    25    28    1
@<TRIPOS>MOLECULE
*****
 35 38 0 0 0
SMALL
GASTEIGER

@<TRIPOS>ATOM
      1 C         140.5358  142.1795  163.6730 C.3     1  UNL1        0.0413
      2 C         139.4371  141.6952  164.5721 C.3     1  UNL1        0.0765
      3 N         140.0450  140.7860  165.5987 N.3     1  UNL1       -0.2723
      4 C         141.5194  140.7084  165.3341 C.3     1  UNL1        0.0741
      5 C         141.8228  141.5696  164.1440 C.3     1  UNL1        0.0410
      6 C         140.0555  144.9717  160.1769 C.ar    1  UNL1        0.1387
      7 C         140.3065  145.5239  161.5488 C.ar    1  UNL1        0.0366
      8 C         140.4667  144.5931  162.7142 C.ar    1  UNL1       -0.0011
      9 C         140.3757  143.1102  162.5077 C.ar    1  UNL1       -0.0209
     10 C         140.1247  142.5581  161.1358 C.ar    1  UNL1       -0.0011
     11 C         139.9646  143.4889  159.9704 C.ar    1  UNL1        0.0366
     12 C         140.1510  145.4103  157.6179 C.3     1  UNL1        0.2525
     13 O         139.8954  145.9025  159.0116 O.3     1  UNL1       -0.4714
     14 C         139.3079  140.0787  166.6970 C.3     1  UNL1        0.0721
     15 C         138.1981  139.1264  166.3631 C.3     1  UNL1        0.0173
     16 C         138.5106  137.8033  165.7292 C.3     1  UNL1        0.0015
     17 C         139.2635  137.7519  164.4328 C.3     1  UNL1        0.0028
     18 C         140.7031  137.3309  164.4179 C.3     1  UNL1        0.0171
     19 C         141.4560  137.2796  163.1214 C.3     1  UNL1        0.0686
     20 N         140.7693  137.6492  161.8401 N.3     1  UNL1       -0.2975
     21 C         139.3296  138.0701  161.8552 C.3     1  UNL1        0.0686
     22 C         138.5767  138.1215  163.1515 C.3     1  UNL1        0.0171
     23 H         140.8319  136.8362  161.2273 H       1  UNL1        0.1232
     24 C         143.1756  141.7833  163.5322 C.3     1  UNL1        0.0914
     25 N         143.4350  141.3569  162.1177 N.am    1  UNL1       -0.3008
     26 C         143.6696  142.3885  161.0544 C.2     1  UNL1        0.2459
     27 O         143.6449  143.8466  161.4055 O.2     1  UNL1       -0.2701
     28 H         143.4512  140.3999  161.8872 H       1  UNL1        0.1497
     29 C         143.9290  141.9621  159.6399 C.ar    1  UNL1        0.0542
     30 C         142.9781  141.0281  158.9518 C.ar    1  UNL1        0.0046
     31 C         143.2375  140.6017  157.5373 C.ar    1  UNL1        0.0010
     32 C         144.4477  141.1091  156.8108 C.ar    1  UNL1        0.0114
     33 C         145.3987  142.0430  157.4990 C.ar    1  UNL1        0.0578
     34 CL        146.6090  142.5505  156.7726 Cl      1  UNL1       -0.0822
     35 C         145.1393  142.4695  158.9135 C.ar    1  UNL1        0.0159
@<TRIPOS>BOND
     1    12    13    1
     2    13     6    1
     3     6     7   ar
     4     7     8   ar
     5     8     9   ar
     6     1     9    1
     7     1     2    1
     8     2     3    1
     9     3    14    1
    10    14    15    1
    11    15    16    1
    12    16    17    1
    13    17    18    1
    14    18    19    1
    15    19    20    1
    16    20    21    1
    17    21    22    1
    18     3     4    1
    19     4     5    1
    20     5    24    1
    21    24    25    1
    22    25    26   am
    23    26    27    2
    24    26    29    1
    25    29    30   ar
    26    30    31   ar
    27    31    32   ar
    28    32    33   ar
    29    33    34    1
    30    33    35   ar
    31     9    10   ar
    32    10    11   ar
    33    11     6   ar
    34     5     1    1
    35    35    29   ar
    36    22    17    1
    37    20    23    1
    38    25    28    1
