@<TRIPOS>MOLECULE
*****
 35 38 0 0 0
SMALL
GASTEIGER

@<TRIPOS>ATOM
      1 C         142.9474  143.2795  165.0665 C.3     1  UNL1        0.0188
      2 C         141.4488  143.3435  165.0733 C.3     1  UNL1        0.0188
      3 C         140.6801  142.7956  166.2390 C.3     1  UNL1        0.0724
      4 N         141.4099  142.1837  167.3978 N.3     1  UNL1       -0.2704
      5 C         142.9085  142.1197  167.3909 C.3     1  UNL1        0.0724
      6 C         143.6773  142.6676  166.2253 C.3     1  UNL1        0.0188
      7 C         140.6411  141.6357  168.5635 C.3     1  UNL1        0.0815
      8 C         140.2514  143.0286  168.9611 C.3     1  UNL1        0.0221
      9 C         139.8724  141.0879  169.7291 C.2     1  UNL1        0.0635
     10 O         139.1243  141.4237  170.2734 O.co2   1  UNL1       -0.5478
     11 O         140.2177  139.7395  170.2882 O.co2   1  UNL1       -0.5478
     12 C         141.0308  140.2429  168.1659 C.3     1  UNL1        0.0463
     13 C         140.3981  139.6004  166.9672 C.ar    1  UNL1       -0.0204
     14 C         138.9049  139.4901  166.8759 C.ar    1  UNL1       -0.0019
     15 C         138.2722  138.8476  165.6773 C.ar    1  UNL1        0.0293
     16 C         139.1327  138.3152  164.5699 C.ar    1  UNL1        0.1401
     17 F         138.5000  137.6727  163.3712 F       1  UNL1       -0.2042
     18 C         140.6258  138.4255  164.6612 C.ar    1  UNL1        0.0293
     19 C         141.2585  139.0681  165.8598 C.ar    1  UNL1       -0.0019
     20 C         143.7162  143.8275  163.9008 C.3     1  UNL1        0.0721
     21 C         143.5118  141.7705  159.9037 C.3     1  UNL1        0.1687
     22 C         144.2563  141.1320  161.0386 C.3     1  UNL1        0.0609
     23 C         144.3245  141.8176  162.3709 C.3     1  UNL1        0.0758
     24 N         143.6481  143.1418  162.5685 N.3     1  UNL1       -0.2724
     25 C         142.9035  143.7803  161.4336 C.3     1  UNL1        0.0758
     26 C         142.8353  143.0947  160.1012 C.3     1  UNL1        0.0609
     27 O         143.4436  141.0849  158.5713 O.3     1  UNL1       -0.4794
     28 C         143.6529  139.2291  156.2235 C.3     1  UNL1        0.0342
     29 C         144.6705  140.3144  156.4146 C.ar    1  UNL1        0.0129
     30 C         145.7926  140.4719  155.4319 C.ar    1  UNL1        0.0101
     31 C         146.8102  141.5573  155.6230 C.ar    1  UNL1        0.0576
     32 CL        147.9325  141.7148  154.6402 Cl      1  UNL1       -0.0823
     33 C         146.7056  142.4852  156.7969 C.ar    1  UNL1        0.0145
     34 C         145.5834  142.3277  157.7796 C.ar    1  UNL1        0.0374
     35 C         144.5659  141.2423  157.5885 C.ar    1  UNL1        0.1344
@<TRIPOS>UNITY_ATOM_ATTR
10 1
charge -1
@<TRIPOS>BOND
     1    28    29    1
     2    29    30   ar
     3    30    31   ar
     4    31    32    1
     5    31    33   ar
     6    33    34   ar
     7    34    35   ar
     8    35    27    1
     9    27    21    1
    10    21    22    1
    11    22    23    1
    12    23    24    1
    13    24    20    1
    14    20     1    1
    15     1     2    1
    16     2     3    1
    17     3     4    1
    18     4     7    1
    19     7     8    1
    20     7    12    1
    21    12    13    1
    22    13    14   ar
    23    14    15   ar
    24    15    16   ar
    25    16    17    1
    26    16    18   ar
    27    18    19   ar
    28     7     9    1
    29     9    10   ar
    30     9    11   ar
    31     4     5    1
    32     5     6    1
    33    24    25    1
    34    25    26    1
    35    35    29   ar
    36    26    21    1
    37     6     1    1
    38    19    13   ar
@<TRIPOS>MOLECULE
*****
 35 38 0 0 0
SMALL
GASTEIGER

@<TRIPOS>ATOM
      1 C         142.8054  143.0407  165.1778 C.3     1  UNL1        0.0188
      2 C         141.3122  143.1652  165.2459 C.3     1  UNL1        0.0188
      3 C         140.5868  142.8104  166.5100 C.3     1  UNL1        0.0724
      4 N         141.3548  142.3310  167.7060 N.3     1  UNL1       -0.2704
      5 C         142.8481  142.2066  167.6379 C.3     1  UNL1        0.0724
      6 C         143.5734  142.5614  166.3738 C.3     1  UNL1        0.0188
      7 C         140.6295  141.9762  168.9701 C.3     1  UNL1        0.0815
      8 C         140.3213  143.4260  169.2003 C.3     1  UNL1        0.0221
      9 C         139.9042  141.6213  170.2342 C.2     1  UNL1        0.0635
     10 O         138.9555  141.5030  170.4680 O.co2   1  UNL1       -0.5478
     11 O         140.6757  141.3643  171.4947 O.co2   1  UNL1       -0.5478
     12 C         140.9377  140.5263  168.7400 C.3     1  UNL1        0.0463
     13 C         140.3340  139.8078  167.5699 C.ar    1  UNL1       -0.0204
     14 C         138.8504  139.5958  167.5040 C.ar    1  UNL1       -0.0019
     15 C         138.2467  138.8773  166.3338 C.ar    1  UNL1        0.0293
     16 C         139.1266  138.3707  165.2296 C.ar    1  UNL1        0.1401
     17 F         138.5229  137.6521  164.0594 F       1  UNL1       -0.2042
     18 C         140.6100  138.5827  165.2955 C.ar    1  UNL1        0.0293
     19 C         141.2137  139.3012  166.4656 C.ar    1  UNL1       -0.0019
     20 C         143.5308  143.3956  163.9136 C.3     1  UNL1        0.0721
     21 C         143.9277  140.3568  160.6185 C.3     1  UNL1        0.1687
     22 C         143.9523  141.8214  160.2951 C.3     1  UNL1        0.0609
     23 C         143.8200  142.8343  161.3935 C.3     1  UNL1        0.0758
     24 N         143.6631  142.3827  162.8153 N.3     1  UNL1       -0.2724
     25 C         143.6385  140.9182  163.1387 C.3     1  UNL1        0.0758
     26 C         143.7708  139.9052  162.0403 C.3     1  UNL1        0.0609
     27 O         144.0600  139.3439  159.5201 O.3     1  UNL1       -0.4794
     28 C         144.3811  140.2579  156.6808 C.3     1  UNL1        0.0342
     29 C         143.1023  139.6080  157.1194 C.ar    1  UNL1        0.0129
     30 C         141.9841  139.4151  156.1385 C.ar    1  UNL1        0.0101
     31 C         140.7054  138.7652  156.5771 C.ar    1  UNL1        0.0576
     32 CL        139.5871  138.5722  155.5960 Cl      1  UNL1       -0.0823
     33 C         140.5448  138.3082  157.9967 C.ar    1  UNL1        0.0145
     34 C         141.6630  138.5011  158.9777 C.ar    1  UNL1        0.0374
     35 C         142.9418  139.1510  158.5391 C.ar    1  UNL1        0.1344
@<TRIPOS>UNITY_ATOM_ATTR
10 1
charge -1
@<TRIPOS>BOND
     1    28    29    1
     2    29    30   ar
     3    30    31   ar
     4    31    32    1
     5    31    33   ar
     6    33    34   ar
     7    34    35   ar
     8    35    27    1
     9    27    21    1
    10    21    22    1
    11    22    23    1
    12    23    24    1
    13    24    20    1
    14    20     1    1
    15     1     2    1
    16     2     3    1
    17     3     4    1
    18     4     7    1
    19     7     8    1
    20     7    12    1
    21    12    13    1
    22    13    14   ar
    23    14    15   ar
    24    15    16   ar
    25    16    17    1
    26    16    18   ar
    27    18    19   ar
    28     7     9    1
    29     9    10   ar
    30     9    11   ar
    31     4     5    1
    32     5     6    1
    33    24    25    1
    34    25    26    1
    35    35    29   ar
    36    26    21    1
    37     6     1    1
    38    19    13   ar
@<TRIPOS>MOLECULE
*****
 35 38 0 0 0
SMALL
GASTEIGER

@<TRIPOS>ATOM
      1 C         138.8013  142.4903  164.7994 C.3     1  UNL1        0.0188
      2 C         138.6344  141.0266  165.0817 C.3     1  UNL1        0.0188
      3 C         139.2374  140.4276  166.3176 C.3     1  UNL1        0.0724
      4 N         140.0072  141.2922  167.2713 N.3     1  UNL1       -0.2704
      5 C         140.1742  142.7560  166.9891 C.3     1  UNL1        0.0724
      6 C         139.5712  143.3550  165.7531 C.3     1  UNL1        0.0188
      7 C         140.6102  140.6932  168.5073 C.3     1  UNL1        0.0815
      8 C         139.2678  140.1511  168.8994 C.3     1  UNL1        0.0221
      9 C         141.2132  140.0942  169.7432 C.2     1  UNL1        0.0635
     10 O         141.0390  139.2757  170.2613 O.co2   1  UNL1       -0.5478
     11 O         142.3385  140.7956  170.4445 O.co2   1  UNL1       -0.5478
     12 C         141.9527  141.2353  168.1151 C.3     1  UNL1        0.0463
     13 C         142.6951  140.6351  166.9582 C.ar    1  UNL1       -0.0204
     14 C         142.8717  139.1481  166.8705 C.ar    1  UNL1       -0.0019
     15 C         143.6141  138.5479  165.7136 C.ar    1  UNL1        0.0293
     16 C         144.1800  139.4347  164.6443 C.ar    1  UNL1        0.1401
     17 F         144.9224  138.8345  163.4873 F       1  UNL1       -0.2042
     18 C         144.0035  140.9217  164.7320 C.ar    1  UNL1        0.0293
     19 C         143.2610  141.5219  165.8889 C.ar    1  UNL1       -0.0019
     20 C         138.1983  143.0894  163.5634 C.3     1  UNL1        0.0721
     21 C         140.8525  144.9282  160.4291 C.3     1  UNL1        0.1687
     22 C         140.1371  145.8045  161.4142 C.3     1  UNL1        0.0609
     23 C         139.2524  145.1915  162.4590 C.3     1  UNL1        0.0758
     24 N         139.0830  143.7023  162.5187 N.3     1  UNL1       -0.2724
     25 C         139.7984  142.8260  161.5336 C.3     1  UNL1        0.0758
     26 C         140.6831  143.4390  160.4888 C.3     1  UNL1        0.0609
     27 O         141.7372  145.5411  159.3843 O.3     1  UNL1       -0.4794
     28 C         143.1700  143.5414  157.6673 C.3     1  UNL1        0.0342
     29 C         142.1011  144.4103  157.0737 C.ar    1  UNL1        0.0129
     30 C         141.7486  144.2794  155.6216 C.ar    1  UNL1        0.0101
     31 C         140.6796  145.1483  155.0280 C.ar    1  UNL1        0.0576
     32 CL        140.3271  145.0174  153.5759 Cl      1  UNL1       -0.0823
     33 C         139.9632  146.1482  155.8865 C.ar    1  UNL1        0.0145
     34 C         140.3158  146.2791  157.3386 C.ar    1  UNL1        0.0374
     35 C         141.3847  145.4101  157.9322 C.ar    1  UNL1        0.1344
@<TRIPOS>UNITY_ATOM_ATTR
10 1
charge -1
@<TRIPOS>BOND
     1    28    29    1
     2    29    30   ar
     3    30    31   ar
     4    31    32    1
     5    31    33   ar
     6    33    34   ar
     7    34    35   ar
     8    35    27    1
     9    27    21    1
    10    21    22    1
    11    22    23    1
    12    23    24    1
    13    24    20    1
    14    20     1    1
    15     1     2    1
    16     2     3    1
    17     3     4    1
    18     4     7    1
    19     7     8    1
    20     7    12    1
    21    12    13    1
    22    13    14   ar
    23    14    15   ar
    24    15    16   ar
    25    16    17    1
    26    16    18   ar
    27    18    19   ar
    28     7     9    1
    29     9    10   ar
    30     9    11   ar
    31     4     5    1
    32     5     6    1
    33    24    25    1
    34    25    26    1
    35    35    29   ar
    36    26    21    1
    37     6     1    1
    38    19    13   ar
@<TRIPOS>MOLECULE
*****
 35 38 0 0 0
SMALL
GASTEIGER

@<TRIPOS>ATOM
      1 C         143.9579  140.4280  165.0900 C.3     1  UNL1        0.0188
      2 C         143.5282  139.1162  165.6770 C.3     1  UNL1        0.0188
      3 C         142.4288  139.0749  166.6966 C.3     1  UNL1        0.0724
      4 N         141.7591  140.3454  167.1291 N.3     1  UNL1       -0.2704
      5 C         142.1887  141.6572  166.5421 C.3     1  UNL1        0.0724
      6 C         143.2881  141.6985  165.5226 C.3     1  UNL1        0.0188
      7 C         140.6596  140.3041  168.1487 C.3     1  UNL1        0.0815
      8 C         141.6181  139.7481  169.1597 C.3     1  UNL1        0.0221
      9 C         139.5602  140.2629  169.1683 C.2     1  UNL1        0.0635
     10 O         138.7858  139.6735  169.3154 O.co2   1  UNL1       -0.5478
     11 O         139.5119  141.2892  170.2611 O.co2   1  UNL1       -0.5478
     12 C         139.7011  140.8602  167.1378 C.3     1  UNL1        0.0463
     13 C         139.3525  140.0621  165.9165 C.ar    1  UNL1       -0.0204
     14 C         139.3410  140.7201  164.5686 C.ar    1  UNL1       -0.0019
     15 C         138.9924  139.9220  163.3473 C.ar    1  UNL1        0.0293
     16 C         138.6552  138.4658  163.4740 C.ar    1  UNL1        0.1401
     17 F         138.3065  137.6677  162.2528 F       1  UNL1       -0.2042
     18 C         138.6666  137.8079  164.8220 C.ar    1  UNL1        0.0293
     19 C         139.0153  138.6060  166.0432 C.ar    1  UNL1       -0.0019
     20 C         145.0573  140.4693  164.0704 C.3     1  UNL1        0.0721
     21 C         144.1139  141.4576  159.7829 C.3     1  UNL1        0.1687
     22 C         143.8875  140.0677  160.2995 C.3     1  UNL1        0.0609
     23 C         144.2019  139.7383  161.7286 C.3     1  UNL1        0.0758
     24 N         144.7429  140.7987  162.6412 N.3     1  UNL1       -0.2724
     25 C         144.9693  142.1886  162.1247 C.3     1  UNL1        0.0758
     26 C         144.6549  142.5181  160.6955 C.3     1  UNL1        0.0609
     27 O         143.7995  141.7871  158.3537 O.3     1  UNL1       -0.4794
     28 C         143.5184  140.0069  155.9553 C.3     1  UNL1        0.0342
     29 C         144.7437  140.8565  156.1193 C.ar    1  UNL1        0.0129
     30 C         145.8284  140.8159  155.0841 C.ar    1  UNL1        0.0101
     31 C         147.0538  141.6654  155.2481 C.ar    1  UNL1        0.0576
     32 CL        148.1386  141.6249  154.2129 Cl      1  UNL1       -0.0823
     33 C         147.1943  142.5555  156.4473 C.ar    1  UNL1        0.0145
     34 C         146.1096  142.5960  157.4824 C.ar    1  UNL1        0.0374
     35 C         144.8843  141.7465  157.3185 C.ar    1  UNL1        0.1344
@<TRIPOS>UNITY_ATOM_ATTR
10 1
charge -1
@<TRIPOS>BOND
     1    28    29    1
     2    29    30   ar
     3    30    31   ar
     4    31    32    1
     5    31    33   ar
     6    33    34   ar
     7    34    35   ar
     8    35    27    1
     9    27    21    1
    10    21    22    1
    11    22    23    1
    12    23    24    1
    13    24    20    1
    14    20     1    1
    15     1     2    1
    16     2     3    1
    17     3     4    1
    18     4     7    1
    19     7     8    1
    20     7    12    1
    21    12    13    1
    22    13    14   ar
    23    14    15   ar
    24    15    16   ar
    25    16    17    1
    26    16    18   ar
    27    18    19   ar
    28     7     9    1
    29     9    10   ar
    30     9    11   ar
    31     4     5    1
    32     5     6    1
    33    24    25    1
    34    25    26    1
    35    35    29   ar
    36    26    21    1
    37     6     1    1
    38    19    13   ar
@<TRIPOS>MOLECULE
*****
 35 38 0 0 0
SMALL
GASTEIGER

@<TRIPOS>ATOM
      1 C         142.4089  143.0917  165.1177 C.3     1  UNL1        0.0188
      2 C         143.2986  142.5344  166.1890 C.3     1  UNL1        0.0188
      3 C         142.7209  142.1497  167.5187 C.3     1  UNL1        0.0724
      4 N         141.2534  142.3223  167.7771 N.3     1  UNL1       -0.2704
      5 C         140.3637  142.8796  166.7058 C.3     1  UNL1        0.0724
      6 C         140.9414  143.2644  165.3761 C.3     1  UNL1        0.0188
      7 C         140.6756  141.9376  169.1069 C.3     1  UNL1        0.0815
      8 C         140.3517  143.3760  169.3823 C.3     1  UNL1        0.0221
      9 C         140.0979  141.5529  170.4366 C.2     1  UNL1        0.0635
     10 O         139.3522  140.9748  170.7166 O.co2   1  UNL1       -0.5478
     11 O         140.6940  142.0995  171.6998 O.co2   1  UNL1       -0.5478
     12 C         140.9995  140.4991  168.8315 C.3     1  UNL1        0.0463
     13 C         140.3699  139.7987  167.6640 C.ar    1  UNL1       -0.0204
     14 C         141.2272  139.2914  166.5425 C.ar    1  UNL1       -0.0019
     15 C         140.5976  138.5910  165.3750 C.ar    1  UNL1        0.0293
     16 C         139.1107  138.3980  165.3290 C.ar    1  UNL1        0.1401
     17 F         138.4811  137.6977  164.1615 F       1  UNL1       -0.2042
     18 C         138.2535  138.9054  166.4505 C.ar    1  UNL1        0.0293
     19 C         138.8831  139.6058  167.6180 C.ar    1  UNL1       -0.0019
     20 C         142.9867  143.4765  163.7879 C.3     1  UNL1        0.0721
     21 C         140.2922  143.9437  160.2142 C.3     1  UNL1        0.1687
     22 C         140.7841  142.5830  160.6099 C.3     1  UNL1        0.0609
     23 C         141.6823  142.4273  161.8011 C.3     1  UNL1        0.0758
     24 N         142.0885  143.6322  162.5967 N.3     1  UNL1       -0.2724
     25 C         141.5967  144.9929  162.2011 C.3     1  UNL1        0.0758
     26 C         140.6985  145.1487  161.0098 C.3     1  UNL1        0.0609
     27 O         139.3941  144.0995  159.0230 O.3     1  UNL1       -0.4794
     28 C         139.9071  141.9639  156.9794 C.3     1  UNL1        0.0342
     29 C         140.2311  143.3947  156.6665 C.ar    1  UNL1        0.0129
     30 C         140.8116  143.7577  155.3319 C.ar    1  UNL1        0.0101
     31 C         141.1357  145.1884  155.0191 C.ar    1  UNL1        0.0576
     32 CL        141.7162  145.5514  153.6844 Cl      1  UNL1       -0.0823
     33 C         140.8792  146.2562  156.0408 C.ar    1  UNL1        0.0145
     34 C         140.2987  145.8932  157.3754 C.ar    1  UNL1        0.0374
     35 C         139.9746  144.4624  157.6883 C.ar    1  UNL1        0.1344
@<TRIPOS>UNITY_ATOM_ATTR
10 1
charge -1
@<TRIPOS>BOND
     1    28    29    1
     2    29    30   ar
     3    30    31   ar
     4    31    32    1
     5    31    33   ar
     6    33    34   ar
     7    34    35   ar
     8    35    27    1
     9    27    21    1
    10    21    22    1
    11    22    23    1
    12    23    24    1
    13    24    20    1
    14    20     1    1
    15     1     2    1
    16     2     3    1
    17     3     4    1
    18     4     7    1
    19     7     8    1
    20     7    12    1
    21    12    13    1
    22    13    14   ar
    23    14    15   ar
    24    15    16   ar
    25    16    17    1
    26    16    18   ar
    27    18    19   ar
    28     7     9    1
    29     9    10   ar
    30     9    11   ar
    31     4     5    1
    32     5     6    1
    33    24    25    1
    34    25    26    1
    35    35    29   ar
    36    26    21    1
    37     6     1    1
    38    19    13   ar
@<TRIPOS>MOLECULE
*****
 35 38 0 0 0
SMALL
GASTEIGER

@<TRIPOS>ATOM
      1 C         140.2518  138.3406  164.6911 C.3     1  UNL1        0.0188
      2 C         141.5836  138.6765  165.2941 C.3     1  UNL1        0.0188
      3 C         141.6751  139.6974  166.3891 C.3     1  UNL1        0.0724
      4 N         140.4348  140.3825  166.8813 N.3     1  UNL1       -0.2704
      5 C         139.1030  140.0467  166.2783 C.3     1  UNL1        0.0724
      6 C         139.0115  139.0257  165.1833 C.3     1  UNL1        0.0188
      7 C         140.5262  141.4036  167.9764 C.3     1  UNL1        0.0815
      8 C         139.6838  140.5316  168.8596 C.3     1  UNL1        0.0221
      9 C         140.6176  142.4245  169.0715 C.2     1  UNL1        0.0635
     10 O         139.9570  142.8617  169.6556 O.co2   1  UNL1       -0.5478
     11 O         141.9519  142.9867  169.4633 O.co2   1  UNL1       -0.5478
     12 C         141.3686  142.2755  167.0932 C.3     1  UNL1        0.0463
     13 C         140.7317  143.0536  165.9801 C.ar    1  UNL1       -0.0204
     14 C         141.3499  143.0501  164.6134 C.ar    1  UNL1       -0.0019
     15 C         140.7130  143.8282  163.5003 C.ar    1  UNL1        0.0293
     16 C         139.4580  144.6097  163.7539 C.ar    1  UNL1        0.1401
     17 F         138.8211  145.3878  162.6408 F       1  UNL1       -0.2042
     18 C         138.8399  144.6131  165.1206 C.ar    1  UNL1        0.0293
     19 C         139.4768  143.8350  166.2337 C.ar    1  UNL1       -0.0019
     20 C         140.1603  137.3196  163.5960 C.3     1  UNL1        0.0721
     21 C         141.1005  138.4822  159.3516 C.3     1  UNL1        0.1687
     22 C         139.6757  138.4357  159.8185 C.3     1  UNL1        0.0609
     23 C         139.3623  138.0481  161.2333 C.3     1  UNL1        0.0758
     24 N         140.4737  137.7072  162.1812 N.3     1  UNL1       -0.2724
     25 C         141.8984  137.7537  161.7144 C.3     1  UNL1        0.0758
     26 C         142.2118  138.1412  160.2996 C.3     1  UNL1        0.0609
     27 O         141.4138  138.8697  157.9369 O.3     1  UNL1       -0.4794
     28 C         139.2652  138.0547  156.0084 C.3     1  UNL1        0.0342
     29 C         140.6143  137.4019  155.9479 C.ar    1  UNL1        0.0129
     30 C         140.8891  136.3415  154.9231 C.ar    1  UNL1        0.0101
     31 C         142.2382  135.6887  154.8626 C.ar    1  UNL1        0.0576
     32 CL        142.5130  134.6283  153.8378 Cl      1  UNL1       -0.0823
     33 C         143.3125  136.0962  155.8268 C.ar    1  UNL1        0.0145
     34 C         143.0377  137.1565  156.8516 C.ar    1  UNL1        0.0374
     35 C         141.6886  137.8094  156.9121 C.ar    1  UNL1        0.1344
@<TRIPOS>UNITY_ATOM_ATTR
10 1
charge -1
@<TRIPOS>BOND
     1    28    29    1
     2    29    30   ar
     3    30    31   ar
     4    31    32    1
     5    31    33   ar
     6    33    34   ar
     7    34    35   ar
     8    35    27    1
     9    27    21    1
    10    21    22    1
    11    22    23    1
    12    23    24    1
    13    24    20    1
    14    20     1    1
    15     1     2    1
    16     2     3    1
    17     3     4    1
    18     4     7    1
    19     7     8    1
    20     7    12    1
    21    12    13    1
    22    13    14   ar
    23    14    15   ar
    24    15    16   ar
    25    16    17    1
    26    16    18   ar
    27    18    19   ar
    28     7     9    1
    29     9    10   ar
    30     9    11   ar
    31     4     5    1
    32     5     6    1
    33    24    25    1
    34    25    26    1
    35    35    29   ar
    36    26    21    1
    37     6     1    1
    38    19    13   ar
@<TRIPOS>MOLECULE
*****
 35 38 0 0 0
SMALL
GASTEIGER

@<TRIPOS>ATOM
      1 C         138.6919  139.5160  162.1861 C.3     1  UNL1        0.0188
      2 C         138.9755  138.2778  162.9840 C.3     1  UNL1        0.0188
      3 C         139.0960  138.3589  164.4769 C.3     1  UNL1        0.0724
      4 N         138.9328  139.6780  165.1719 N.3     1  UNL1       -0.2704
      5 C         138.6493  140.9162  164.3741 C.3     1  UNL1        0.0724
      6 C         138.5288  140.8351  162.8811 C.3     1  UNL1        0.0188
      7 C         139.0533  139.7591  166.6649 C.3     1  UNL1        0.0815
      8 C         137.9459  138.7576  166.8086 C.3     1  UNL1        0.0221
      9 C         139.1737  139.8402  168.1579 C.2     1  UNL1        0.0635
     10 O         139.8688  140.1717  168.7708 O.co2   1  UNL1       -0.5478
     11 O         138.0593  139.3402  169.0285 O.co2   1  UNL1       -0.5478
     12 C         140.1607  140.7606  166.5212 C.3     1  UNL1        0.0463
     13 C         141.4892  140.3357  165.9694 C.ar    1  UNL1       -0.0204
     14 C         142.1698  141.1713  164.9259 C.ar    1  UNL1       -0.0019
     15 C         143.4983  140.7465  164.3741 C.ar    1  UNL1        0.0293
     16 C         144.1463  139.4861  164.8657 C.ar    1  UNL1        0.1401
     17 F         145.4748  139.0612  164.3139 F       1  UNL1       -0.2042
     18 C         143.4657  138.6506  165.9092 C.ar    1  UNL1        0.0293
     19 C         142.1372  139.0754  166.4610 C.ar    1  UNL1       -0.0019
     20 C         138.5714  139.4349  160.6931 C.3     1  UNL1        0.0721
     21 C         142.0648  138.0336  158.2267 C.3     1  UNL1        0.1687
     22 C         140.6877  138.0558  157.6322 C.3     1  UNL1        0.0609
     23 C         139.5233  138.5229  158.4543 C.3     1  UNL1        0.0758
     24 N         139.7359  138.9678  159.8710 N.3     1  UNL1       -0.2724
     25 C         141.1128  138.9457  160.4655 C.3     1  UNL1        0.0758
     26 C         142.2773  138.4786  159.6433 C.3     1  UNL1        0.0609
     27 O         143.2292  137.5666  157.4046 O.3     1  UNL1       -0.4794
     28 C         142.7513  137.7899  154.4513 C.3     1  UNL1        0.0342
     29 C         142.8689  136.4387  155.0919 C.ar    1  UNL1        0.0129
     30 C         142.7476  135.1992  154.2560 C.ar    1  UNL1        0.0101
     31 C         142.8653  133.8480  154.8966 C.ar    1  UNL1        0.0576
     32 CL        142.7440  132.6085  154.0606 Cl      1  UNL1       -0.0823
     33 C         143.1043  133.7363  156.3732 C.ar    1  UNL1        0.0145
     34 C         143.2256  134.9758  157.2092 C.ar    1  UNL1        0.0374
     35 C         143.1079  136.3270  156.5685 C.ar    1  UNL1        0.1344
@<TRIPOS>UNITY_ATOM_ATTR
10 1
charge -1
@<TRIPOS>BOND
     1    28    29    1
     2    29    30   ar
     3    30    31   ar
     4    31    32    1
     5    31    33   ar
     6    33    34   ar
     7    34    35   ar
     8    35    27    1
     9    27    21    1
    10    21    22    1
    11    22    23    1
    12    23    24    1
    13    24    20    1
    14    20     1    1
    15     1     2    1
    16     2     3    1
    17     3     4    1
    18     4     7    1
    19     7     8    1
    20     7    12    1
    21    12    13    1
    22    13    14   ar
    23    14    15   ar
    24    15    16   ar
    25    16    17    1
    26    16    18   ar
    27    18    19   ar
    28     7     9    1
    29     9    10   ar
    30     9    11   ar
    31     4     5    1
    32     5     6    1
    33    24    25    1
    34    25    26    1
    35    35    29   ar
    36    26    21    1
    37     6     1    1
    38    19    13   ar
@<TRIPOS>MOLECULE
*****
 35 38 0 0 0
SMALL
GASTEIGER

@<TRIPOS>ATOM
      1 C         140.0090  138.6712  162.4393 C.3     1  UNL1        0.0188
      2 C         141.0901  137.7515  161.9543 C.3     1  UNL1        0.0188
      3 C         142.0817  138.2309  160.9361 C.3     1  UNL1        0.0724
      4 N         141.9922  139.6300  160.4028 N.3     1  UNL1       -0.2704
      5 C         140.9111  140.5497  160.8878 C.3     1  UNL1        0.0724
      6 C         139.9194  140.0703  161.9060 C.3     1  UNL1        0.0188
      7 C         142.9839  140.1094  159.3845 C.3     1  UNL1        0.0815
      8 C         141.8606  140.4452  158.4488 C.3     1  UNL1        0.0221
      9 C         143.9754  140.5888  158.3662 C.2     1  UNL1        0.0635
     10 O         144.7906  140.2037  157.9715 O.co2   1  UNL1       -0.5478
     11 O         143.8048  141.9363  157.7297 O.co2   1  UNL1       -0.5478
     12 C         144.1071  139.7736  160.3202 C.3     1  UNL1        0.0463
     13 C         144.3676  140.6362  161.5194 C.ar    1  UNL1       -0.0204
     14 C         144.4420  142.1268  161.3692 C.ar    1  UNL1       -0.0019
     15 C         144.7025  142.9894  162.5684 C.ar    1  UNL1        0.0293
     16 C         144.8885  142.3613  163.9179 C.ar    1  UNL1        0.1401
     17 F         145.1490  143.2239  165.1171 F       1  UNL1       -0.2042
     18 C         144.8141  140.8707  164.0680 C.ar    1  UNL1        0.0293
     19 C         144.5536  140.0082  162.8688 C.ar    1  UNL1       -0.0019
     20 C         139.0173  138.1918  163.4576 C.3     1  UNL1        0.0721
     21 C         139.3389  139.5637  167.7313 C.3     1  UNL1        0.1687
     22 C         140.4794  139.7892  166.7833 C.3     1  UNL1        0.0609
     23 C         140.3722  139.3319  165.3588 C.3     1  UNL1        0.0758
     24 N         139.1245  138.6491  164.8821 N.3     1  UNL1       -0.2724
     25 C         137.9841  138.4236  165.8300 C.3     1  UNL1        0.0758
     26 C         138.0913  138.8809  167.2546 C.3     1  UNL1        0.0609
     27 O         139.4461  140.0210  169.1558 O.3     1  UNL1       -0.4794
     28 C         142.1265  138.9513  169.9752 C.3     1  UNL1        0.0342
     29 C         141.8792  140.4308  169.9697 C.ar    1  UNL1        0.0129
     30 C         142.9720  141.3754  170.3740 C.ar    1  UNL1        0.0101
     31 C         142.7247  142.8549  170.3685 C.ar    1  UNL1        0.0576
     32 CL        143.8176  143.7995  170.7728 Cl      1  UNL1       -0.0823
     33 C         141.3845  143.3897  169.9588 C.ar    1  UNL1        0.0145
     34 C         140.2917  142.4451  169.5546 C.ar    1  UNL1        0.0374
     35 C         140.5390  140.9657  169.5601 C.ar    1  UNL1        0.1344
@<TRIPOS>UNITY_ATOM_ATTR
10 1
charge -1
@<TRIPOS>BOND
     1    28    29    1
     2    29    30   ar
     3    30    31   ar
     4    31    32    1
     5    31    33   ar
     6    33    34   ar
     7    34    35   ar
     8    35    27    1
     9    27    21    1
    10    21    22    1
    11    22    23    1
    12    23    24    1
    13    24    20    1
    14    20     1    1
    15     1     2    1
    16     2     3    1
    17     3     4    1
    18     4     7    1
    19     7     8    1
    20     7    12    1
    21    12    13    1
    22    13    14   ar
    23    14    15   ar
    24    15    16   ar
    25    16    17    1
    26    16    18   ar
    27    18    19   ar
    28     7     9    1
    29     9    10   ar
    30     9    11   ar
    31     4     5    1
    32     5     6    1
    33    24    25    1
    34    25    26    1
    35    35    29   ar
    36    26    21    1
    37     6     1    1
    38    19    13   ar
@<TRIPOS>MOLECULE
*****
 35 38 0 0 0
SMALL
GASTEIGER

@<TRIPOS>ATOM
      1 C         138.2911  141.7209  164.4378 C.3     1  UNL1        0.0188
      2 C         139.0241  142.9736  164.8166 C.3     1  UNL1        0.0188
      3 C         140.0425  142.9429  165.9174 C.3     1  UNL1        0.0724
      4 N         140.3279  141.6595  166.6395 N.3     1  UNL1       -0.2704
      5 C         139.5949  140.4068  166.2607 C.3     1  UNL1        0.0724
      6 C         138.5765  140.4375  165.1598 C.3     1  UNL1        0.0188
      7 C         141.3463  141.6288  167.7404 C.3     1  UNL1        0.0815
      8 C         140.6105  142.7254  168.4517 C.3     1  UNL1        0.0221
      9 C         142.3647  141.5981  168.8413 C.2     1  UNL1        0.0635
     10 O         142.6939  140.8973  169.4488 O.co2   1  UNL1       -0.5478
     11 O         143.1217  142.8431  169.1977 O.co2   1  UNL1       -0.5478
     12 C         142.0822  140.5322  167.0291 C.3     1  UNL1        0.0463
     13 C         143.1394  140.8702  166.0201 C.ar    1  UNL1       -0.0204
     14 C         143.5465  142.2986  165.8102 C.ar    1  UNL1       -0.0019
     15 C         144.6038  142.6366  164.8012 C.ar    1  UNL1        0.0293
     16 C         145.2539  141.5462  164.0022 C.ar    1  UNL1        0.1401
     17 F         146.3111  141.8842  162.9932 F       1  UNL1       -0.2042
     18 C         144.8467  140.1179  164.2121 C.ar    1  UNL1        0.0293
     19 C         143.7895  139.7799  165.2211 C.ar    1  UNL1       -0.0019
     20 C         137.2727  141.7516  163.3369 C.3     1  UNL1        0.0721
     21 C         138.5739  141.2855  159.0544 C.3     1  UNL1        0.1687
     22 C         137.9612  140.1260  159.7826 C.3     1  UNL1        0.0609
     23 C         137.5274  140.2813  161.2101 C.3     1  UNL1        0.0758
     24 N         137.7064  141.5962  161.9094 N.3     1  UNL1       -0.2724
     25 C         138.3191  142.7557  161.1813 C.3     1  UNL1        0.0758
     26 C         138.7529  142.6003  159.7538 C.3     1  UNL1        0.0609
     27 O         139.0076  141.1301  157.6269 O.3     1  UNL1       -0.4794
     28 C         138.9867  138.8402  155.6888 C.3     1  UNL1        0.0342
     29 C         137.9723  139.9381  155.5635 C.ar    1  UNL1        0.0129
     30 C         136.9476  139.8911  154.4692 C.ar    1  UNL1        0.0101
     31 C         135.9332  140.9890  154.3439 C.ar    1  UNL1        0.0576
     32 CL        134.9084  140.9419  153.2496 Cl      1  UNL1       -0.0823
     33 C         135.9436  142.1339  155.3130 C.ar    1  UNL1        0.0145
     34 C         136.9684  142.1809  156.4073 C.ar    1  UNL1        0.0374
     35 C         137.9828  141.0830  156.5326 C.ar    1  UNL1        0.1344
@<TRIPOS>UNITY_ATOM_ATTR
10 1
charge -1
@<TRIPOS>BOND
     1    28    29    1
     2    29    30   ar
     3    30    31   ar
     4    31    32    1
     5    31    33   ar
     6    33    34   ar
     7    34    35   ar
     8    35    27    1
     9    27    21    1
    10    21    22    1
    11    22    23    1
    12    23    24    1
    13    24    20    1
    14    20     1    1
    15     1     2    1
    16     2     3    1
    17     3     4    1
    18     4     7    1
    19     7     8    1
    20     7    12    1
    21    12    13    1
    22    13    14   ar
    23    14    15   ar
    24    15    16   ar
    25    16    17    1
    26    16    18   ar
    27    18    19   ar
    28     7     9    1
    29     9    10   ar
    30     9    11   ar
    31     4     5    1
    32     5     6    1
    33    24    25    1
    34    25    26    1
    35    35    29   ar
    36    26    21    1
    37     6     1    1
    38    19    13   ar
