@<TRIPOS>MOLECULE
*****
 38 41 0 0 0
SMALL
GASTEIGER

@<TRIPOS>ATOM
      1 C         138.3012  140.1271  159.5694 C.3     1  UNL1        0.0118
      2 C         137.5190  140.3655  160.8268 C.3     1  UNL1        0.0179
      3 C         137.7810  139.5279  162.0433 C.3     1  UNL1        0.0724
      4 N         138.8252  138.4518  162.0022 N.3     1  UNL1       -0.2689
      5 C         139.6074  138.2133  160.7447 C.3     1  UNL1        0.0724
      6 C         139.3453  139.0510  159.5283 C.3     1  UNL1        0.0179
      7 C         138.0392  140.9647  158.3529 C.3     1  UNL1        0.0854
      8 C         140.3539  144.4491  160.0115 C.3     1  UNL1        0.0965
      9 C         141.5015  145.0245  159.2357 C.3     1  UNL1        0.0126
     10 C         141.8776  144.4385  157.9071 C.3     1  UNL1        0.0221
     11 C         141.1060  143.2771  157.3542 C.3     1  UNL1        0.0934
     12 N         139.9584  142.7016  158.1300 N.am    1  UNL1       -0.2790
     13 C         139.1868  141.5401  157.5771 C.2     1  UNL1        0.2256
     14 O         139.5628  140.9541  156.2485 O.2     1  UNL1       -0.2749
     15 C         139.5824  143.2876  159.4586 C.3     1  UNL1        0.1024
     16 N         140.4587  144.3915  162.6068 N.am    1  UNL1       -0.2795
     17 C         139.9779  145.0351  161.3401 C.2     1  UNL1        0.2268
     18 O         139.1210  146.2646  161.4020 O.2     1  UNL1       -0.2748
     19 C         138.9536  144.3835  164.7245 C.3     1  UNL1        0.0233
     20 C         140.0826  144.9775  163.9354 C.3     1  UNL1        0.0935
     21 C         141.3156  143.1618  162.5449 C.3     1  UNL1        0.0935
     22 C         140.6866  141.8036  162.6432 C.3     1  UNL1        0.0233
     23 C         139.0872  137.6142  163.2187 C.3     1  UNL1        0.1007
     24 C         140.2106  137.9702  164.1467 C.ar    1  UNL1        0.0129
     25 C         141.5248  137.2552  164.2550 C.ar    1  UNL1        0.0176
     26 C         142.3435  137.9467  165.3045 C.ar    1  UNL1        0.0799
     27 N         141.5354  139.0891  165.8448 N.ar    1  UNL1       -0.3038
     28 C         140.2172  139.1036  165.1292 C.ar    1  UNL1        0.0772
     29 C         141.9692  140.0486  166.9131 C.ar    1  UNL1        0.0640
     30 C         142.3583  139.5363  168.2681 C.ar    1  UNL1        0.0175
     31 C         142.7922  140.4958  169.3364 C.ar    1  UNL1        0.0053
     32 C         142.8370  141.9674  169.0496 C.ar    1  UNL1        0.0715
     33 C         142.4480  142.4796  167.6945 C.ar    1  UNL1        0.0053
     34 C         142.0141  141.5202  166.6263 C.ar    1  UNL1        0.0175
     35 C         143.2709  142.9268  170.1179 C.3     1  UNL1        0.4186
     36 F         143.7048  143.8862  171.1862 F       1  UNL1       -0.1659
     37 F         141.8581  143.4113  170.2565 F       1  UNL1       -0.1659
     38 F         144.6838  142.4423  169.9793 F       1  UNL1       -0.1659
@<TRIPOS>BOND
     1    19    20    1
     2    20    16    1
     3    16    21    1
     4    21    22    1
     5    16    17   am
     6    17    18    2
     7    17     8    1
     8     8     9    1
     9     9    10    1
    10    10    11    1
    11    11    12    1
    12    12    13   am
    13    13    14    2
    14    13     7    1
    15     7     1    1
    16     1     2    1
    17     2     3    1
    18     3     4    1
    19     4    23    1
    20    23    24    1
    21    24    25   ar
    22    25    26   ar
    23    26    27   ar
    24    27    29    1
    25    29    30   ar
    26    30    31   ar
    27    31    32   ar
    28    32    35    1
    29    35    36    1
    30    35    37    1
    31    35    38    1
    32    32    33   ar
    33    33    34   ar
    34    27    28   ar
    35     4     5    1
    36     5     6    1
    37    12    15    1
    38    15     8    1
    39     6     1    1
    40    28    24   ar
    41    34    29   ar
@<TRIPOS>MOLECULE
*****
 38 41 0 0 0
SMALL
GASTEIGER

@<TRIPOS>ATOM
      1 C         142.8391  141.6675  160.2350 C.3     1  UNL1        0.0118
      2 C         142.4073  140.2383  160.3791 C.3     1  UNL1        0.0179
      3 C         142.9896  139.3849  161.4665 C.3     1  UNL1        0.0724
      4 N         144.0037  139.9607  162.4099 N.3     1  UNL1       -0.2689
      5 C         144.4355  141.3900  162.2658 C.3     1  UNL1        0.0724
      6 C         143.8532  142.2434  161.1784 C.3     1  UNL1        0.0179
      7 C         142.2567  142.5210  159.1475 C.3     1  UNL1        0.0854
      8 C         139.0642  143.3904  162.1974 C.3     1  UNL1        0.0965
      9 C         138.6698  144.8083  162.4869 C.3     1  UNL1        0.0126
     10 C         139.3395  145.9365  161.7598 C.3     1  UNL1        0.0221
     11 C         140.4037  145.6467  160.7432 C.3     1  UNL1        0.0934
     12 N         140.7981  144.2288  160.4537 N.am    1  UNL1       -0.2790
     13 C         141.8623  143.9390  159.4370 C.2     1  UNL1        0.2256
     14 O         142.5321  145.0671  158.7100 O.2     1  UNL1       -0.2749
     15 C         140.1283  143.1006  161.1808 C.3     1  UNL1        0.1024
     16 N         138.9598  141.7656  164.2220 N.am    1  UNL1       -0.2795
     17 C         138.3944  142.2622  162.9245 C.2     1  UNL1        0.2268
     18 O         137.1592  141.6307  162.3541 O.2     1  UNL1       -0.2748
     19 C         139.0300  139.3546  165.1874 C.3     1  UNL1        0.0233
     20 C         138.2901  140.6374  164.9491 C.3     1  UNL1        0.0935
     21 C         140.1951  142.3972  164.7925 C.3     1  UNL1        0.0935
     22 C         140.0769  143.4549  165.8495 C.3     1  UNL1        0.0233
     23 C         144.5860  139.1072  163.4974 C.3     1  UNL1        0.1007
     24 C         144.0044  139.1530  164.8792 C.ar    1  UNL1        0.0129
     25 C         144.1455  138.0926  165.9307 C.ar    1  UNL1        0.0176
     26 C         143.4079  138.5514  167.1536 C.ar    1  UNL1        0.0799
     27 N         142.8110  139.8954  166.8579 N.ar    1  UNL1       -0.3038
     28 C         143.1797  140.2672  165.4523 C.ar    1  UNL1        0.0772
     29 C         141.9897  140.7224  167.8021 C.ar    1  UNL1        0.0640
     30 C         140.6482  140.2300  168.2579 C.ar    1  UNL1        0.0175
     31 C         139.8269  141.0570  169.2021 C.ar    1  UNL1        0.0053
     32 C         140.3470  142.3764  169.6905 C.ar    1  UNL1        0.0715
     33 C         141.6886  142.8688  169.2347 C.ar    1  UNL1        0.0053
     34 C         142.5099  142.0419  168.2905 C.ar    1  UNL1        0.0175
     35 C         139.5257  143.2034  170.6346 C.3     1  UNL1        0.4186
     36 F         138.7044  144.0303  171.5788 F       1  UNL1       -0.1659
     37 F         138.6611  142.0126  170.9254 F       1  UNL1       -0.1659
     38 F         140.3904  144.3942  170.3439 F       1  UNL1       -0.1659
@<TRIPOS>BOND
     1    19    20    1
     2    20    16    1
     3    16    21    1
     4    21    22    1
     5    16    17   am
     6    17    18    2
     7    17     8    1
     8     8     9    1
     9     9    10    1
    10    10    11    1
    11    11    12    1
    12    12    13   am
    13    13    14    2
    14    13     7    1
    15     7     1    1
    16     1     2    1
    17     2     3    1
    18     3     4    1
    19     4    23    1
    20    23    24    1
    21    24    25   ar
    22    25    26   ar
    23    26    27   ar
    24    27    29    1
    25    29    30   ar
    26    30    31   ar
    27    31    32   ar
    28    32    35    1
    29    35    36    1
    30    35    37    1
    31    35    38    1
    32    32    33   ar
    33    33    34   ar
    34    27    28   ar
    35     4     5    1
    36     5     6    1
    37    12    15    1
    38    15     8    1
    39     6     1    1
    40    28    24   ar
    41    34    29   ar
@<TRIPOS>MOLECULE
*****
 38 41 0 0 0
SMALL
GASTEIGER

@<TRIPOS>ATOM
      1 C         140.7702  139.4865  159.7514 C.3     1  UNL1        0.0118
      2 C         141.7207  138.6407  160.5457 C.3     1  UNL1        0.0179
      3 C         141.2502  137.9538  161.7934 C.3     1  UNL1        0.0724
      4 N         139.8292  138.1126  162.2466 N.3     1  UNL1       -0.2689
      5 C         138.8787  138.9584  161.4523 C.3     1  UNL1        0.0724
      6 C         139.3492  139.6454  160.2046 C.3     1  UNL1        0.0179
      7 C         141.2407  140.1736  158.5036 C.3     1  UNL1        0.0854
      8 C         141.7655  143.9617  160.8753 C.3     1  UNL1        0.0965
      9 C         141.1030  145.2286  160.4214 C.3     1  UNL1        0.0126
     10 C         140.2656  145.2328  159.1769 C.3     1  UNL1        0.0221
     11 C         140.0906  143.9701  158.3864 C.3     1  UNL1        0.0934
     12 N         140.7531  142.7032  158.8403 N.am    1  UNL1       -0.2790
     13 C         140.5782  141.4404  158.0497 C.2     1  UNL1        0.2256
     14 O         139.7407  141.4446  156.8053 O.2     1  UNL1       -0.2749
     15 C         141.5906  142.6990  160.0847 C.3     1  UNL1        0.1024
     16 N         141.9589  143.7378  163.4564 N.am    1  UNL1       -0.2795
     17 C         142.6030  143.9575  162.1197 C.2     1  UNL1        0.2268
     18 O         144.0845  144.1730  162.0274 O.2     1  UNL1       -0.2748
     19 C         143.3602  142.4446  165.2211 C.3     1  UNL1        0.0233
     20 C         142.7964  143.7336  164.7009 C.3     1  UNL1        0.0935
     21 C         140.4773  143.5223  163.5487 C.3     1  UNL1        0.0935
     22 C         139.5713  144.6717  163.8770 C.3     1  UNL1        0.0233
     23 C         139.3587  137.4256  163.4944 C.3     1  UNL1        0.1007
     24 C         139.3469  138.1655  164.7990 C.ar    1  UNL1        0.0129
     25 C         138.2158  138.1988  165.7836 C.ar    1  UNL1        0.0176
     26 C         138.6339  139.0560  166.9413 C.ar    1  UNL1        0.0799
     27 N         140.0236  139.5526  166.6723 N.ar    1  UNL1       -0.3038
     28 C         140.4642  139.0022  165.3483 C.ar    1  UNL1        0.0772
     29 C         140.8308  140.4431  167.5696 C.ar    1  UNL1        0.0640
     30 C         140.4571  141.8873  167.7263 C.ar    1  UNL1        0.0175
     31 C         141.2644  142.7778  168.6237 C.ar    1  UNL1        0.0053
     32 C         142.4453  142.2241  169.3644 C.ar    1  UNL1        0.0715
     33 C         142.8191  140.7799  169.2078 C.ar    1  UNL1        0.0053
     34 C         142.0119  139.8894  168.3104 C.ar    1  UNL1        0.0175
     35 C         143.2525  143.1147  170.2618 C.3     1  UNL1        0.4186
     36 F         144.0598  144.0052  171.1592 F       1  UNL1       -0.1659
     37 F         144.4452  142.2252  170.0716 F       1  UNL1       -0.1659
     38 F         142.0598  144.0042  170.4520 F       1  UNL1       -0.1659
@<TRIPOS>BOND
     1    19    20    1
     2    20    16    1
     3    16    21    1
     4    21    22    1
     5    16    17   am
     6    17    18    2
     7    17     8    1
     8     8     9    1
     9     9    10    1
    10    10    11    1
    11    11    12    1
    12    12    13   am
    13    13    14    2
    14    13     7    1
    15     7     1    1
    16     1     2    1
    17     2     3    1
    18     3     4    1
    19     4    23    1
    20    23    24    1
    21    24    25   ar
    22    25    26   ar
    23    26    27   ar
    24    27    29    1
    25    29    30   ar
    26    30    31   ar
    27    31    32   ar
    28    32    35    1
    29    35    36    1
    30    35    37    1
    31    35    38    1
    32    32    33   ar
    33    33    34   ar
    34    27    28   ar
    35     4     5    1
    36     5     6    1
    37    12    15    1
    38    15     8    1
    39     6     1    1
    40    28    24   ar
    41    34    29   ar
@<TRIPOS>MOLECULE
*****
 38 41 0 0 0
SMALL
GASTEIGER

@<TRIPOS>ATOM
      1 C         141.4598  138.4986  160.3739 C.3     1  UNL1        0.0118
      2 C         139.9689  138.6618  160.3542 C.3     1  UNL1        0.0179
      3 C         139.1546  138.2597  161.5480 C.3     1  UNL1        0.0724
      4 N         139.8312  137.6943  162.7615 N.3     1  UNL1       -0.2689
      5 C         141.3221  137.5311  162.7812 C.3     1  UNL1        0.0724
      6 C         142.1364  137.9333  161.5874 C.3     1  UNL1        0.0179
      7 C         142.2742  138.9008  159.1801 C.3     1  UNL1        0.0854
      8 C         142.2623  143.2039  160.4965 C.3     1  UNL1        0.0965
      9 C         141.7586  144.2703  159.5697 C.3     1  UNL1        0.0126
     10 C         141.2588  143.9023  158.2041 C.3     1  UNL1        0.0221
     11 C         141.2627  142.4680  157.7653 C.3     1  UNL1        0.0934
     12 N         141.7665  141.4016  158.6921 N.am    1  UNL1       -0.2790
     13 C         141.7704  139.9672  158.2533 C.2     1  UNL1        0.2256
     14 O         141.2706  139.5992  156.8877 O.2     1  UNL1       -0.2749
     15 C         142.2663  141.7695  160.0577 C.3     1  UNL1        0.1024
     16 N         141.8569  143.4453  163.0513 N.am    1  UNL1       -0.2795
     17 C         142.7621  143.5718  161.8621 C.2     1  UNL1        0.2268
     18 O         144.1672  144.0663  162.0384 O.2     1  UNL1       -0.2748
     19 C         142.9208  142.7559  165.3191 C.3     1  UNL1        0.0233
     20 C         142.3567  143.8132  164.4169 C.3     1  UNL1        0.0935
     21 C         140.4517  142.9508  162.8750 C.3     1  UNL1        0.0935
     22 C         140.1335  141.5015  163.0949 C.3     1  UNL1        0.0233
     23 C         139.0168  137.2922  163.9553 C.3     1  UNL1        0.1007
     24 C         139.0692  138.1128  165.2098 C.ar    1  UNL1        0.0129
     25 C         137.9567  138.2779  166.2024 C.ar    1  UNL1        0.0176
     26 C         138.4431  139.1795  167.2981 C.ar    1  UNL1        0.0799
     27 N         139.8563  139.5717  166.9826 N.ar    1  UNL1       -0.3038
     28 C         140.2431  138.9124  165.6921 C.ar    1  UNL1        0.0772
     29 C         140.7292  140.4660  167.8122 C.ar    1  UNL1        0.0640
     30 C         140.3033  141.8759  168.0963 C.ar    1  UNL1        0.0175
     31 C         141.1763  142.7703  168.9259 C.ar    1  UNL1        0.0053
     32 C         142.4750  142.2547  169.4712 C.ar    1  UNL1        0.0715
     33 C         142.9008  140.8448  169.1871 C.ar    1  UNL1        0.0053
     34 C         142.0279  139.9505  168.3575 C.ar    1  UNL1        0.0175
     35 C         143.3478  143.1491  170.3008 C.3     1  UNL1        0.4186
     36 F         144.2207  144.0435  171.1303 F       1  UNL1       -0.1659
     37 F         142.1980  144.0930  170.4931 F       1  UNL1       -0.1659
     38 F         144.4978  142.2052  170.1085 F       1  UNL1       -0.1659
@<TRIPOS>BOND
     1    19    20    1
     2    20    16    1
     3    16    21    1
     4    21    22    1
     5    16    17   am
     6    17    18    2
     7    17     8    1
     8     8     9    1
     9     9    10    1
    10    10    11    1
    11    11    12    1
    12    12    13   am
    13    13    14    2
    14    13     7    1
    15     7     1    1
    16     1     2    1
    17     2     3    1
    18     3     4    1
    19     4    23    1
    20    23    24    1
    21    24    25   ar
    22    25    26   ar
    23    26    27   ar
    24    27    29    1
    25    29    30   ar
    26    30    31   ar
    27    31    32   ar
    28    32    35    1
    29    35    36    1
    30    35    37    1
    31    35    38    1
    32    32    33   ar
    33    33    34   ar
    34    27    28   ar
    35     4     5    1
    36     5     6    1
    37    12    15    1
    38    15     8    1
    39     6     1    1
    40    28    24   ar
    41    34    29   ar
@<TRIPOS>MOLECULE
*****
 38 41 0 0 0
SMALL
GASTEIGER

@<TRIPOS>ATOM
      1 C         139.5062  138.5132  161.2428 C.3     1  UNL1        0.0118
      2 C         139.0955  138.8701  159.8450 C.3     1  UNL1        0.0179
      3 C         140.1175  138.8994  158.7475 C.3     1  UNL1        0.0724
      4 N         141.5502  138.5719  159.0478 N.3     1  UNL1       -0.2689
      5 C         141.9609  138.2149  160.4456 C.3     1  UNL1        0.0724
      6 C         140.9389  138.1856  161.5431 C.3     1  UNL1        0.0179
      7 C         138.4842  138.4838  162.3405 C.3     1  UNL1        0.0854
      8 C         139.2146  142.6503  163.8756 C.3     1  UNL1        0.0965
      9 C         139.6368  142.8618  165.2993 C.3     1  UNL1        0.0126
     10 C         139.8155  141.6844  166.2113 C.3     1  UNL1        0.0221
     11 C         139.5720  140.2955  165.6997 C.3     1  UNL1        0.0934
     12 N         139.1499  140.0841  164.2759 N.am    1  UNL1       -0.2790
     13 C         138.9064  138.6952  163.7642 C.2     1  UNL1        0.2256
     14 O         139.0851  137.5178  164.6762 O.2     1  UNL1       -0.2749
     15 C         138.9711  141.2615  163.3639 C.3     1  UNL1        0.1024
     16 N         140.2362  144.5332  162.4056 N.am    1  UNL1       -0.2795
     17 C         139.0359  143.8277  162.9635 C.2     1  UNL1        0.2268
     18 O         137.6568  144.2996  162.6095 O.2     1  UNL1       -0.2748
     19 C         140.2998  145.5619  160.0207 C.3     1  UNL1        0.0233
     20 C         140.0575  145.7106  161.4935 C.3     1  UNL1        0.0935
     21 C         141.6154  144.0613  162.7597 C.3     1  UNL1        0.0935
     22 C         142.4966  144.9064  163.6311 C.3     1  UNL1        0.0233
     23 C         142.5722  138.6012  157.9502 C.3     1  UNL1        0.1007
     24 C         142.9612  137.3311  157.2534 C.ar    1  UNL1        0.0129
     25 C         143.3914  137.2070  155.8218 C.ar    1  UNL1        0.0176
     26 C         143.6844  135.7613  155.5495 C.ar    1  UNL1        0.0799
     27 N         143.4353  134.9919  156.8129 N.ar    1  UNL1       -0.3038
     28 C         142.9883  135.9621  157.8659 C.ar    1  UNL1        0.0772
     29 C         143.6036  133.5122  156.9918 C.ar    1  UNL1        0.0640
     30 C         144.7519  132.9799  157.7968 C.ar    1  UNL1        0.0175
     31 C         144.9201  131.5001  157.9756 C.ar    1  UNL1        0.0053
     32 C         143.9402  130.5527  157.3496 C.ar    1  UNL1        0.0715
     33 C         142.7919  131.0850  156.5446 C.ar    1  UNL1        0.0053
     34 C         142.6236  132.5647  156.3657 C.ar    1  UNL1        0.0175
     35 C         144.1085  129.0729  157.5284 C.3     1  UNL1        0.4186
     36 F         144.2768  127.5932  157.7073 F       1  UNL1       -0.1659
     37 F         142.9770  128.8289  156.5744 F       1  UNL1       -0.1659
     38 F         145.2400  129.3169  158.4825 F       1  UNL1       -0.1659
@<TRIPOS>BOND
     1    19    20    1
     2    20    16    1
     3    16    21    1
     4    21    22    1
     5    16    17   am
     6    17    18    2
     7    17     8    1
     8     8     9    1
     9     9    10    1
    10    10    11    1
    11    11    12    1
    12    12    13   am
    13    13    14    2
    14    13     7    1
    15     7     1    1
    16     1     2    1
    17     2     3    1
    18     3     4    1
    19     4    23    1
    20    23    24    1
    21    24    25   ar
    22    25    26   ar
    23    26    27   ar
    24    27    29    1
    25    29    30   ar
    26    30    31   ar
    27    31    32   ar
    28    32    35    1
    29    35    36    1
    30    35    37    1
    31    35    38    1
    32    32    33   ar
    33    33    34   ar
    34    27    28   ar
    35     4     5    1
    36     5     6    1
    37    12    15    1
    38    15     8    1
    39     6     1    1
    40    28    24   ar
    41    34    29   ar
@<TRIPOS>MOLECULE
*****
 38 41 0 0 0
SMALL
GASTEIGER

@<TRIPOS>ATOM
      1 C         143.6898  143.0598  158.0733 C.3     1  UNL1        0.0118
      2 C         143.8912  142.8248  159.5410 C.3     1  UNL1        0.0179
      3 C         143.0118  143.5178  160.5391 C.3     1  UNL1        0.0724
      4 N         141.9309  144.4457  160.0695 N.3     1  UNL1       -0.2689
      5 C         141.7295  144.6807  158.6018 C.3     1  UNL1        0.0724
      6 C         142.6089  143.9877  157.6037 C.3     1  UNL1        0.0179
      7 C         144.5693  142.3667  157.0751 C.3     1  UNL1        0.0854
      8 C         142.8217  138.4794  158.5189 C.3     1  UNL1        0.0965
      9 C         142.2262  137.5143  157.5371 C.3     1  UNL1        0.0126
     10 C         142.2132  137.8450  156.0741 C.3     1  UNL1        0.0221
     11 C         142.7957  139.1408  155.5928 C.3     1  UNL1        0.0934
     12 N         143.3912  140.1058  156.5746 N.am    1  UNL1       -0.2790
     13 C         143.9738  141.4017  156.0933 C.2     1  UNL1        0.2256
     14 O         143.9608  141.7323  154.6303 O.2     1  UNL1       -0.2749
     15 C         143.4042  139.7752  158.0376 C.3     1  UNL1        0.1024
     16 N         141.5570  138.1712  160.7673 N.am    1  UNL1       -0.2795
     17 C         142.8347  138.1487  159.9819 C.2     1  UNL1        0.2268
     18 O         144.1255  137.7956  160.6596 O.2     1  UNL1       -0.2748
     19 C         141.9409  138.8922  163.2337 C.3     1  UNL1        0.0233
     20 C         141.5700  137.8405  162.2304 C.3     1  UNL1        0.0935
     21 C         140.2662  138.5244  160.0897 C.3     1  UNL1        0.0935
     22 C         138.9787  138.4783  160.8579 C.3     1  UNL1        0.0233
     23 C         141.0514  145.1388  161.0676 C.3     1  UNL1        0.1007
     24 C         140.7499  144.4845  162.3833 C.ar    1  UNL1        0.0129
     25 C         140.9752  145.0856  163.7390 C.ar    1  UNL1        0.0176
     26 C         140.5348  144.0869  164.7679 C.ar    1  UNL1        0.0799
     27 N         140.0372  142.8686  164.0481 N.ar    1  UNL1       -0.3038
     28 C         140.1702  143.1143  162.5744 C.ar    1  UNL1        0.0772
     29 C         139.5008  141.6232  164.6894 C.ar    1  UNL1        0.0640
     30 C         139.8127  141.3254  166.1261 C.ar    1  UNL1        0.0175
     31 C         139.2763  140.0800  166.7674 C.ar    1  UNL1        0.0053
     32 C         138.4282  139.1324  165.9721 C.ar    1  UNL1        0.0715
     33 C         138.1163  139.4302  164.5354 C.ar    1  UNL1        0.0053
     34 C         138.6526  140.6756  163.8941 C.ar    1  UNL1        0.0175
     35 C         137.8918  137.8871  166.6134 C.3     1  UNL1        0.4186
     36 F         137.3555  136.6417  167.2548 F       1  UNL1       -0.1659
     37 F         137.3512  138.7046  167.7489 F       1  UNL1       -0.1659
     38 F         138.4324  137.0694  165.4779 F       1  UNL1       -0.1659
@<TRIPOS>BOND
     1    19    20    1
     2    20    16    1
     3    16    21    1
     4    21    22    1
     5    16    17   am
     6    17    18    2
     7    17     8    1
     8     8     9    1
     9     9    10    1
    10    10    11    1
    11    11    12    1
    12    12    13   am
    13    13    14    2
    14    13     7    1
    15     7     1    1
    16     1     2    1
    17     2     3    1
    18     3     4    1
    19     4    23    1
    20    23    24    1
    21    24    25   ar
    22    25    26   ar
    23    26    27   ar
    24    27    29    1
    25    29    30   ar
    26    30    31   ar
    27    31    32   ar
    28    32    35    1
    29    35    36    1
    30    35    37    1
    31    35    38    1
    32    32    33   ar
    33    33    34   ar
    34    27    28   ar
    35     4     5    1
    36     5     6    1
    37    12    15    1
    38    15     8    1
    39     6     1    1
    40    28    24   ar
    41    34    29   ar
@<TRIPOS>MOLECULE
*****
 38 41 0 0 0
SMALL
GASTEIGER

@<TRIPOS>ATOM
      1 C         141.4421  139.8546  158.3471 C.3     1  UNL1        0.0118
      2 C         142.9172  139.8856  158.6174 C.3     1  UNL1        0.0179
      3 C         143.4640  139.2610  159.8667 C.3     1  UNL1        0.0724
      4 N         142.5357  138.6054  160.8458 N.3     1  UNL1       -0.2689
      5 C         141.0606  138.5744  160.5755 C.3     1  UNL1        0.0724
      6 C         140.5138  139.1990  159.3261 C.3     1  UNL1        0.0179
      7 C         140.8953  140.4792  157.0977 C.3     1  UNL1        0.0854
      8 C         140.0524  143.8320  159.9784 C.3     1  UNL1        0.0965
      9 C         140.4237  145.2403  159.6195 C.3     1  UNL1        0.0126
     10 C         141.0759  145.5310  158.3004 C.3     1  UNL1        0.0221
     11 C         141.3569  144.4134  157.3402 C.3     1  UNL1        0.0934
     12 N         140.9856  143.0052  157.6991 N.am    1  UNL1       -0.2790
     13 C         141.2665  141.8875  156.7388 C.2     1  UNL1        0.2256
     14 O         141.9188  142.1782  155.4197 O.2     1  UNL1       -0.2749
     15 C         140.3334  142.7145  159.0182 C.3     1  UNL1        0.1024
     16 N         140.2427  143.3311  162.5206 N.am    1  UNL1       -0.2795
     17 C         139.4002  143.5413  161.2975 C.2     1  UNL1        0.2268
     18 O         137.9055  143.4609  161.3936 O.2     1  UNL1       -0.2748
     19 C         140.1692  143.6051  165.1032 C.3     1  UNL1        0.0233
     20 C         139.5905  143.0404  163.8397 C.3     1  UNL1        0.0935
     21 C         141.7375  143.4115  162.4246 C.3     1  UNL1        0.0935
     22 C         142.5321  142.1933  162.0582 C.3     1  UNL1        0.0233
     23 C         143.0825  137.9807  162.0951 C.3     1  UNL1        0.1007
     24 C         143.2719  138.8128  163.3287 C.ar    1  UNL1        0.0129
     25 C         144.5781  139.3395  163.8449 C.ar    1  UNL1        0.0176
     26 C         144.3019  140.1165  165.0979 C.ar    1  UNL1        0.0799
     27 N         142.8250  140.0700  165.3561 N.ar    1  UNL1       -0.3038
     28 C         142.1885  139.2643  164.2627 C.ar    1  UNL1        0.0772
     29 C         142.1101  140.7158  166.5058 C.ar    1  UNL1        0.0640
     30 C         140.7471  140.2350  166.9069 C.ar    1  UNL1        0.0175
     31 C         140.0323  140.8809  168.0567 C.ar    1  UNL1        0.0053
     32 C         140.6805  142.0075  168.8053 C.ar    1  UNL1        0.0715
     33 C         142.0435  142.4883  168.4042 C.ar    1  UNL1        0.0053
     34 C         142.7584  141.8425  167.2545 C.ar    1  UNL1        0.0175
     35 C         139.9657  142.6533  169.9550 C.3     1  UNL1        0.4186
     36 F         139.2508  143.2991  171.1048 F       1  UNL1       -0.1659
     37 F         140.8772  143.8403  169.8550 F       1  UNL1       -0.1659
     38 F         139.0541  141.4662  170.0551 F       1  UNL1       -0.1659
@<TRIPOS>BOND
     1    19    20    1
     2    20    16    1
     3    16    21    1
     4    21    22    1
     5    16    17   am
     6    17    18    2
     7    17     8    1
     8     8     9    1
     9     9    10    1
    10    10    11    1
    11    11    12    1
    12    12    13   am
    13    13    14    2
    14    13     7    1
    15     7     1    1
    16     1     2    1
    17     2     3    1
    18     3     4    1
    19     4    23    1
    20    23    24    1
    21    24    25   ar
    22    25    26   ar
    23    26    27   ar
    24    27    29    1
    25    29    30   ar
    26    30    31   ar
    27    31    32   ar
    28    32    35    1
    29    35    36    1
    30    35    37    1
    31    35    38    1
    32    32    33   ar
    33    33    34   ar
    34    27    28   ar
    35     4     5    1
    36     5     6    1
    37    12    15    1
    38    15     8    1
    39     6     1    1
    40    28    24   ar
    41    34    29   ar
@<TRIPOS>MOLECULE
*****
 38 41 0 0 0
SMALL
GASTEIGER

@<TRIPOS>ATOM
      1 C         141.2775  144.4509  157.5345 C.3     1  UNL1        0.0118
      2 C         140.5906  145.4090  158.4619 C.3     1  UNL1        0.0179
      3 C         140.9909  145.4720  159.9061 C.3     1  UNL1        0.0724
      4 N         142.0780  144.5769  160.4229 N.3     1  UNL1       -0.2689
      5 C         142.7649  143.6189  159.4954 C.3     1  UNL1        0.0724
      6 C         142.3647  143.5558  158.0512 C.3     1  UNL1        0.0179
      7 C         140.8773  144.3878  156.0902 C.3     1  UNL1        0.0854
      8 C         138.2055  140.9484  157.2223 C.3     1  UNL1        0.0965
      9 C         136.7540  140.9704  156.8446 C.3     1  UNL1        0.0126
     10 C         136.1931  142.1388  156.0896 C.3     1  UNL1        0.0221
     11 C         137.0837  143.2853  155.7122 C.3     1  UNL1        0.0934
     12 N         138.5352  143.2633  156.0899 N.am    1  UNL1       -0.2790
     13 C         139.4258  144.4098  155.7125 C.2     1  UNL1        0.2256
     14 O         138.8649  145.5783  154.9574 O.2     1  UNL1       -0.2749
     15 C         139.0961  142.0948  156.8449 C.3     1  UNL1        0.1024
     16 N         138.8437  139.8218  159.4747 N.am    1  UNL1       -0.2795
     17 C         138.7664  139.7799  157.9773 C.2     1  UNL1        0.2268
     18 O         139.2500  138.5696  157.2350 O.2     1  UNL1       -0.2748
     19 C         138.6482  138.0771  161.3899 C.3     1  UNL1        0.0233
     20 C         139.4046  138.6534  160.2298 C.3     1  UNL1        0.0935
     21 C         138.3601  141.0322  160.2172 C.3     1  UNL1        0.0935
     22 C         139.2891  142.1848  160.4586 C.3     1  UNL1        0.0233
     23 C         142.4783  144.6400  161.8672 C.3     1  UNL1        0.1007
     24 C         141.5399  144.1454  162.9277 C.ar    1  UNL1        0.0129
     25 C         140.7833  144.9979  163.9027 C.ar    1  UNL1        0.0176
     26 C         139.9692  144.0908  164.7771 C.ar    1  UNL1        0.0799
     27 N         140.2228  142.6777  164.3425 N.ar    1  UNL1       -0.3038
     28 C         141.1936  142.7114  163.1995 C.ar    1  UNL1        0.0772
     29 C         139.6127  141.4470  164.9451 C.ar    1  UNL1        0.0640
     30 C         138.4852  140.7487  164.2442 C.ar    1  UNL1        0.0175
     31 C         137.8752  139.5179  164.8469 C.ar    1  UNL1        0.0053
     32 C         138.3926  138.9855  166.1502 C.ar    1  UNL1        0.0715
     33 C         139.5200  139.6838  166.8511 C.ar    1  UNL1        0.0053
     34 C         140.1301  140.9146  166.2485 C.ar    1  UNL1        0.0175
     35 C         137.7825  137.7548  166.7528 C.3     1  UNL1        0.4186
     36 F         137.1724  136.5241  167.3554 F       1  UNL1       -0.1659
     37 F         137.1077  138.5987  167.7932 F       1  UNL1       -0.1659
     38 F         138.4573  136.9108  165.7124 F       1  UNL1       -0.1659
@<TRIPOS>BOND
     1    19    20    1
     2    20    16    1
     3    16    21    1
     4    21    22    1
     5    16    17   am
     6    17    18    2
     7    17     8    1
     8     8     9    1
     9     9    10    1
    10    10    11    1
    11    11    12    1
    12    12    13   am
    13    13    14    2
    14    13     7    1
    15     7     1    1
    16     1     2    1
    17     2     3    1
    18     3     4    1
    19     4    23    1
    20    23    24    1
    21    24    25   ar
    22    25    26   ar
    23    26    27   ar
    24    27    29    1
    25    29    30   ar
    26    30    31   ar
    27    31    32   ar
    28    32    35    1
    29    35    36    1
    30    35    37    1
    31    35    38    1
    32    32    33   ar
    33    33    34   ar
    34    27    28   ar
    35     4     5    1
    36     5     6    1
    37    12    15    1
    38    15     8    1
    39     6     1    1
    40    28    24   ar
    41    34    29   ar
@<TRIPOS>MOLECULE
*****
 38 41 0 0 0
SMALL
GASTEIGER

@<TRIPOS>ATOM
      1 C         139.6428  141.0062  159.3649 C.3     1  UNL1        0.0118
      2 C         138.6806  140.3437  160.3058 C.3     1  UNL1        0.0179
      3 C         138.0413  141.1374  161.4064 C.3     1  UNL1        0.0724
      4 N         138.3642  142.5935  161.5661 N.3     1  UNL1       -0.2689
      5 C         139.3265  143.2559  160.6253 C.3     1  UNL1        0.0724
      6 C         139.9657  142.4623  159.5247 C.3     1  UNL1        0.0179
      7 C         140.2821  140.2125  158.2642 C.3     1  UNL1        0.0854
      8 C         143.5251  140.1729  161.3837 C.3     1  UNL1        0.0965
      9 C         144.2453  138.8959  161.7007 C.3     1  UNL1        0.0126
     10 C         143.8844  137.6320  160.9779 C.3     1  UNL1        0.0221
     11 C         142.8035  137.6452  159.9381 C.3     1  UNL1        0.0934
     12 N         142.0833  138.9223  159.6211 N.am    1  UNL1       -0.2790
     13 C         141.0023  138.9355  158.5812 C.2     1  UNL1        0.2256
     14 O         140.6414  137.6716  157.8584 O.2     1  UNL1       -0.2749
     15 C         142.4442  140.1861  160.3439 C.3     1  UNL1        0.1024
     16 N         143.2625  141.7449  163.4355 N.am    1  UNL1       -0.2795
     17 C         143.8860  141.4368  162.1065 C.2     1  UNL1        0.2268
     18 O         144.8704  142.3925  161.5004 O.2     1  UNL1       -0.2748
     19 C         144.7983  143.0302  165.0906 C.3     1  UNL1        0.0233
     20 C         143.6233  143.0087  164.1583 C.3     1  UNL1        0.0935
     21 C         142.2780  140.7891  164.0418 C.3     1  UNL1        0.0935
     22 C         142.7238  139.8241  165.1001 C.3     1  UNL1        0.0233
     23 C         137.7249  143.3871  162.6668 C.3     1  UNL1        0.1007
     24 C         138.4011  143.4989  164.0011 C.ar    1  UNL1        0.0129
     25 C         138.4541  144.7257  164.8626 C.ar    1  UNL1        0.0176
     26 C         139.2287  144.3886  166.1020 C.ar    1  UNL1        0.0799
     27 N         139.6544  142.9533  166.0066 N.ar    1  UNL1       -0.3038
     28 C         139.1429  142.4035  164.7082 C.ar    1  UNL1        0.0772
     29 C         140.4516  142.2002  167.0300 C.ar    1  UNL1        0.0640
     30 C         141.8296  142.6648  167.3977 C.ar    1  UNL1        0.0175
     31 C         142.6268  141.9116  168.4210 C.ar    1  UNL1        0.0053
     32 C         142.0460  140.6940  169.0767 C.ar    1  UNL1        0.0715
     33 C         140.6680  140.2294  168.7090 C.ar    1  UNL1        0.0053
     34 C         139.8708  140.9825  167.6856 C.ar    1  UNL1        0.0175
     35 C         142.8432  139.9409  170.1000 C.3     1  UNL1        0.4186
     36 F         143.6404  139.1878  171.1234 F       1  UNL1       -0.1659
     37 F         141.9367  138.7573  169.9352 F       1  UNL1       -0.1659
     38 F         143.7498  141.1245  170.2649 F       1  UNL1       -0.1659
@<TRIPOS>BOND
     1    19    20    1
     2    20    16    1
     3    16    21    1
     4    21    22    1
     5    16    17   am
     6    17    18    2
     7    17     8    1
     8     8     9    1
     9     9    10    1
    10    10    11    1
    11    11    12    1
    12    12    13   am
    13    13    14    2
    14    13     7    1
    15     7     1    1
    16     1     2    1
    17     2     3    1
    18     3     4    1
    19     4    23    1
    20    23    24    1
    21    24    25   ar
    22    25    26   ar
    23    26    27   ar
    24    27    29    1
    25    29    30   ar
    26    30    31   ar
    27    31    32   ar
    28    32    35    1
    29    35    36    1
    30    35    37    1
    31    35    38    1
    32    32    33   ar
    33    33    34   ar
    34    27    28   ar
    35     4     5    1
    36     5     6    1
    37    12    15    1
    38    15     8    1
    39     6     1    1
    40    28    24   ar
    41    34    29   ar
