@<TRIPOS>MOLECULE
*****
 36 38 0 0 0
SMALL
GASTEIGER

@<TRIPOS>ATOM
      1 N         141.3812  138.1456  157.6358 N.3     1  UNL1       -0.2705
      2 C         139.9429  138.2042  158.0575 C.3     1  UNL1        0.0739
      3 C         139.5884  138.5945  159.4618 C.3     1  UNL1        0.0394
      4 C         140.6722  138.9263  160.4443 C.3     1  UNL1        0.1017
      5 C         142.1105  138.8677  160.0226 C.3     1  UNL1        0.1490
      6 C         142.4650  138.4774  158.6183 C.3     1  UNL1        0.1037
      7 N         140.3177  139.3167  161.8486 N.am    1  UNL1       -0.2999
      8 C         140.3770  138.2978  162.9479 C.2     1  UNL1        0.2488
      9 O         140.7909  136.8887  162.6429 O.2     1  UNL1       -0.2700
     10 H         140.0460  140.2415  162.0487 H       1  UNL1        0.1498
     11 C         140.0225  138.6881  164.3522 C.ar    1  UNL1        0.0882
     12 C         138.8381  138.0633  165.0280 C.ar    1  UNL1        0.0202
     13 C         138.4835  138.4536  166.4322 C.ar    1  UNL1        0.0709
     14 CL        137.2991  137.8288  167.1080 Cl      1  UNL1       -0.0810
     15 C         139.3134  139.4688  167.1607 C.ar    1  UNL1        0.0553
     16 N         138.9589  139.8591  168.5649 N.pl3   1  UNL1       -0.3563
     17 C         140.4979  140.0937  166.4849 C.ar    1  UNL1        0.0520
     18 C         140.8524  139.7033  165.0806 C.ar    1  UNL1        0.1443
     19 H         138.1815  139.4490  169.0085 H       1  UNL1        0.1424
     20 H         139.5036  140.5254  169.0431 H       1  UNL1        0.1424
     21 O         142.0368  140.3281  164.4048 O.3     1  UNL1       -0.4712
     22 C         143.4208  140.0588  164.9168 C.3     1  UNL1        0.2525
     23 O         143.1942  139.1995  161.0051 O.3     1  UNL1       -0.3505
     24 C         143.9698  138.0989  161.6663 C.3     1  UNL1        0.1741
     25 C         141.7358  137.7553  156.2315 C.3     1  UNL1        0.0722
     26 C         141.2560  136.4487  155.6724 C.3     1  UNL1        0.0174
     27 C         144.0050  131.3400  157.2032 C.2     1  UNL1        0.2256
     28 O         145.1597  131.3673  158.1602 O.2     1  UNL1       -0.2749
     29 N         143.3178  132.6172  156.8205 N.am    1  UNL1       -0.2795
     30 C         142.1631  132.5899  155.8635 C.3     1  UNL1        0.0934
     31 C         141.4758  133.8671  155.4808 C.3     1  UNL1        0.0216
     32 C         141.9432  135.1716  156.0551 C.3     1  UNL1        0.0048
     33 C         143.0979  135.1988  157.0121 C.3     1  UNL1        0.0216
     34 C         143.7852  133.9216  157.3948 C.3     1  UNL1        0.0934
     35 C         143.3767  128.8389  157.5189 C.3     1  UNL1        0.0101
     36 C         143.5376  130.0356  156.6289 C.3     1  UNL1        0.0853
@<TRIPOS>BOND
     1    35    36    1
     2    36    27    1
     3    27    28    2
     4    27    29   am
     5    29    30    1
     6    30    31    1
     7    31    32    1
     8    32    26    1
     9    26    25    1
    10    25     1    1
    11     1     2    1
    12     2     3    1
    13     3     4    1
    14     4     7    1
    15     7     8   am
    16     8     9    2
    17     8    11    1
    18    11    12   ar
    19    12    13   ar
    20    13    14    1
    21    13    15   ar
    22    15    16    1
    23    15    17   ar
    24    17    18   ar
    25    18    21    1
    26    21    22    1
    27     4     5    1
    28     5    23    1
    29    23    24    1
    30     5     6    1
    31    32    33    1
    32    33    34    1
    33    34    29    1
    34     6     1    1
    35    18    11   ar
    36     7    10    1
    37    16    19    1
    38    16    20    1
@<TRIPOS>MOLECULE
*****
 36 38 0 0 0
SMALL
GASTEIGER

@<TRIPOS>ATOM
      1 N         142.0010  138.3883  158.0521 N.3     1  UNL1       -0.2705
      2 C         143.0519  138.7391  159.0635 C.3     1  UNL1        0.0739
      3 C         142.6534  139.1110  160.4609 C.3     1  UNL1        0.0394
      4 C         141.2040  139.1320  160.8471 C.3     1  UNL1        0.1017
      5 C         140.1533  138.7812  159.8358 C.3     1  UNL1        0.1490
      6 C         140.5518  138.4094  158.4383 C.3     1  UNL1        0.1037
      7 N         140.8055  139.5038  162.2445 N.am    1  UNL1       -0.2999
      8 C         140.5562  138.4318  163.2637 C.2     1  UNL1        0.2488
      9 O         140.7054  136.9880  162.8854 O.2     1  UNL1       -0.2700
     10 H         140.7076  140.4515  162.4929 H       1  UNL1        0.1498
     11 C         140.1577  138.8037  164.6612 C.ar    1  UNL1        0.0882
     12 C         138.8796  138.2757  165.2423 C.ar    1  UNL1        0.0202
     13 C         138.4811  138.6475  166.6397 C.ar    1  UNL1        0.0709
     14 CL        137.2029  138.1195  167.2208 Cl      1  UNL1       -0.0810
     15 C         139.3607  139.5474  167.4561 C.ar    1  UNL1        0.0553
     16 N         138.9622  139.9192  168.8536 N.pl3   1  UNL1       -0.3563
     17 C         140.6389  140.0754  166.8751 C.ar    1  UNL1        0.0520
     18 C         141.0374  139.7035  165.4776 C.ar    1  UNL1        0.1443
     19 H         138.1233  139.5727  169.2350 H       1  UNL1        0.1424
     20 H         139.5395  140.5098  169.3895 H       1  UNL1        0.1424
     21 O         142.3154  140.2315  164.8966 O.3     1  UNL1       -0.4712
     22 C         143.5974  139.4788  165.0964 C.3     1  UNL1        0.2525
     23 O         138.7040  138.8022  160.2219 O.3     1  UNL1       -0.3505
     24 C         137.9071  140.0647  160.0759 C.3     1  UNL1        0.1741
     25 C         142.3995  138.0165  156.6547 C.3     1  UNL1        0.0722
     26 C         141.6801  136.9123  155.9383 C.3     1  UNL1        0.0174
     27 C         143.3136  131.2055  156.8122 C.2     1  UNL1        0.2256
     28 O         142.6180  130.1040  156.0688 O.2     1  UNL1       -0.2749
     29 N         142.9052  132.6322  156.5938 N.am    1  UNL1       -0.2795
     30 C         143.6009  133.7337  157.3372 C.3     1  UNL1        0.0934
     31 C         143.1925  135.1604  157.1187 C.3     1  UNL1        0.0216
     32 C         142.0885  135.4856  156.1568 C.3     1  UNL1        0.0048
     33 C         141.3928  134.3841  155.4134 C.3     1  UNL1        0.0216
     34 C         141.8012  132.9574  155.6318 C.3     1  UNL1        0.0934
     35 C         144.4152  129.5694  158.5032 C.3     1  UNL1        0.0101
     36 C         144.4176  130.8803  157.7742 C.3     1  UNL1        0.0853
@<TRIPOS>BOND
     1    35    36    1
     2    36    27    1
     3    27    28    2
     4    27    29   am
     5    29    30    1
     6    30    31    1
     7    31    32    1
     8    32    26    1
     9    26    25    1
    10    25     1    1
    11     1     2    1
    12     2     3    1
    13     3     4    1
    14     4     7    1
    15     7     8   am
    16     8     9    2
    17     8    11    1
    18    11    12   ar
    19    12    13   ar
    20    13    14    1
    21    13    15   ar
    22    15    16    1
    23    15    17   ar
    24    17    18   ar
    25    18    21    1
    26    21    22    1
    27     4     5    1
    28     5    23    1
    29    23    24    1
    30     5     6    1
    31    32    33    1
    32    33    34    1
    33    34    29    1
    34     6     1    1
    35    18    11   ar
    36     7    10    1
    37    16    19    1
    38    16    20    1
@<TRIPOS>MOLECULE
*****
 36 38 0 0 0
SMALL
GASTEIGER

@<TRIPOS>ATOM
      1 N         141.6883  138.2791  160.3652 N.3     1  UNL1       -0.2705
      2 C         142.8475  138.1558  161.3092 C.3     1  UNL1        0.0739
      3 C         142.6242  138.2606  162.7888 C.3     1  UNL1        0.0394
      4 C         141.2418  138.4886  163.3244 C.3     1  UNL1        0.1017
      5 C         140.0826  138.6119  162.3804 C.3     1  UNL1        0.1490
      6 C         140.3059  138.5071  160.9008 C.3     1  UNL1        0.1037
      7 N         141.0185  138.5934  164.8040 N.am    1  UNL1       -0.2999
      8 C         141.3267  139.8750  165.5200 C.2     1  UNL1        0.2488
      9 O         141.8580  141.0517  164.7565 O.2     1  UNL1       -0.2700
     10 H         140.6697  137.8211  165.3051 H       1  UNL1        0.1498
     11 C         141.1034  139.9798  166.9996 C.ar    1  UNL1        0.0882
     12 C         142.2715  140.1584  167.9236 C.ar    1  UNL1        0.0202
     13 C         142.0482  140.2632  169.4032 C.ar    1  UNL1        0.0709
     14 CL        143.2163  140.4418  170.3271 Cl      1  UNL1       -0.0810
     15 C         140.6569  140.1893  169.9588 C.ar    1  UNL1        0.0553
     16 N         140.4337  140.2941  171.4384 N.pl3   1  UNL1       -0.3563
     17 C         139.4888  140.0107  169.0349 C.ar    1  UNL1        0.0520
     18 C         139.7120  139.9059  167.5553 C.ar    1  UNL1        0.1443
     19 H         141.2003  140.4113  172.0448 H       1  UNL1        0.1424
     20 H         139.5205  140.2456  171.8031 H       1  UNL1        0.1424
     21 O         138.5440  139.7273  166.6313 O.3     1  UNL1       -0.4712
     22 C         137.7904  138.4305  166.6172 C.3     1  UNL1        0.2525
     23 O         138.7002  138.8399  162.9160 O.3     1  UNL1       -0.3505
     24 C         137.9558  140.0931  162.5616 C.3     1  UNL1        0.1741
     25 C         141.9115  138.1743  158.8856 C.3     1  UNL1        0.0722
     26 C         141.8555  139.4048  158.0297 C.3     1  UNL1        0.0174
     27 C         146.8856  142.4360  156.8009 C.2     1  UNL1        0.2256
     28 O         147.4186  143.4349  157.7848 O.2     1  UNL1       -0.2749
     29 N         145.6281  141.6782  157.1081 N.am    1  UNL1       -0.2795
     30 C         145.0950  140.6794  156.1242 C.3     1  UNL1        0.0934
     31 C         143.8375  139.9216  156.4314 C.3     1  UNL1        0.0216
     32 C         143.1130  140.1626  157.7225 C.3     1  UNL1        0.0048
     33 C         143.6461  141.1615  158.7064 C.3     1  UNL1        0.0216
     34 C         144.9036  141.9193  158.3992 C.3     1  UNL1        0.0934
     35 C         148.9984  141.6273  155.5235 C.3     1  UNL1        0.0101
     36 C         147.6101  142.1950  155.5098 C.3     1  UNL1        0.0853
@<TRIPOS>BOND
     1    35    36    1
     2    36    27    1
     3    27    28    2
     4    27    29   am
     5    29    30    1
     6    30    31    1
     7    31    32    1
     8    32    26    1
     9    26    25    1
    10    25     1    1
    11     1     2    1
    12     2     3    1
    13     3     4    1
    14     4     7    1
    15     7     8   am
    16     8     9    2
    17     8    11    1
    18    11    12   ar
    19    12    13   ar
    20    13    14    1
    21    13    15   ar
    22    15    16    1
    23    15    17   ar
    24    17    18   ar
    25    18    21    1
    26    21    22    1
    27     4     5    1
    28     5    23    1
    29    23    24    1
    30     5     6    1
    31    32    33    1
    32    33    34    1
    33    34    29    1
    34     6     1    1
    35    18    11   ar
    36     7    10    1
    37    16    19    1
    38    16    20    1
@<TRIPOS>MOLECULE
*****
 36 38 0 0 0
SMALL
GASTEIGER

@<TRIPOS>ATOM
      1 N         142.1960  138.1961  159.4929 N.3     1  UNL1       -0.2705
      2 C         143.1567  137.7789  160.5667 C.3     1  UNL1        0.0739
      3 C         142.7568  137.8744  162.0092 C.3     1  UNL1        0.0394
      4 C         141.3961  138.3871  162.3779 C.3     1  UNL1        0.1017
      5 C         140.4355  138.8043  161.3041 C.3     1  UNL1        0.1490
      6 C         140.8355  138.7088  159.8616 C.3     1  UNL1        0.1037
      7 N         140.9962  138.4826  163.8205 N.am    1  UNL1       -0.2999
      8 C         141.4884  139.6231  164.6613 C.2     1  UNL1        0.2488
      9 O         142.3806  140.6681  164.0596 O.2     1  UNL1       -0.2700
     10 H         140.4107  137.7967  164.2154 H       1  UNL1        0.1498
     11 C         141.0885  139.7186  166.1039 C.ar    1  UNL1        0.0882
     12 C         142.1403  139.8116  167.1692 C.ar    1  UNL1        0.0202
     13 C         141.7404  139.9071  168.6117 C.ar    1  UNL1        0.0709
     14 CL        142.7923  140.0000  169.6771 Cl      1  UNL1       -0.0810
     15 C         140.2886  139.9096  168.9889 C.ar    1  UNL1        0.0553
     16 N         139.8887  140.0051  170.4315 N.pl3   1  UNL1       -0.3563
     17 C         139.2367  139.8167  167.9236 C.ar    1  UNL1        0.0520
     18 C         139.6366  139.7212  166.4810 C.ar    1  UNL1        0.1443
     19 H         140.5790  140.0661  171.1307 H       1  UNL1        0.1424
     20 H         138.9358  140.0068  170.6791 H       1  UNL1        0.1424
     21 O         138.5848  139.6282  165.4157 O.3     1  UNL1       -0.4712
     22 C         138.0968  140.8715  164.7332 C.3     1  UNL1        0.2525
     23 O         139.0750  139.3169  161.6728 O.3     1  UNL1       -0.3505
     24 C         137.9127  138.3718  161.7495 C.3     1  UNL1        0.1741
     25 C         142.5960  138.1006  158.0503 C.3     1  UNL1        0.0722
     26 C         141.7225  137.3662  157.0769 C.3     1  UNL1        0.0174
     27 C         143.5001  132.0905  154.8392 C.2     1  UNL1        0.2256
     28 O         144.6189  131.3365  155.4946 O.2     1  UNL1       -0.2749
     29 N         143.0557  133.4094  155.3986 N.am    1  UNL1       -0.2795
     30 C         141.9368  134.1634  154.7432 C.3     1  UNL1        0.0934
     31 C         141.4924  135.4823  155.3026 C.3     1  UNL1        0.0216
     32 C         142.1669  136.0472  156.5175 C.3     1  UNL1        0.0048
     33 C         143.2857  135.2933  157.1729 C.3     1  UNL1        0.0216
     34 C         143.7301  133.9743  156.6135 C.3     1  UNL1        0.0934
     35 C         143.6167  130.7288  152.6296 C.3     1  UNL1        0.0101
     36 C         142.8256  131.5255  153.6244 C.3     1  UNL1        0.0853
@<TRIPOS>BOND
     1    35    36    1
     2    36    27    1
     3    27    28    2
     4    27    29   am
     5    29    30    1
     6    30    31    1
     7    31    32    1
     8    32    26    1
     9    26    25    1
    10    25     1    1
    11     1     2    1
    12     2     3    1
    13     3     4    1
    14     4     7    1
    15     7     8   am
    16     8     9    2
    17     8    11    1
    18    11    12   ar
    19    12    13   ar
    20    13    14    1
    21    13    15   ar
    22    15    16    1
    23    15    17   ar
    24    17    18   ar
    25    18    21    1
    26    21    22    1
    27     4     5    1
    28     5    23    1
    29    23    24    1
    30     5     6    1
    31    32    33    1
    32    33    34    1
    33    34    29    1
    34     6     1    1
    35    18    11   ar
    36     7    10    1
    37    16    19    1
    38    16    20    1
@<TRIPOS>MOLECULE
*****
 36 38 0 0 0
SMALL
GASTEIGER

@<TRIPOS>ATOM
      1 N         139.5258  138.0268  162.3744 N.3     1  UNL1       -0.2705
      2 C         138.1293  138.5529  162.2221 C.3     1  UNL1        0.0739
      3 C         137.7192  139.2343  160.9503 C.3     1  UNL1        0.0394
      4 C         138.7055  139.3897  159.8309 C.3     1  UNL1        0.1017
      5 C         140.1019  138.8637  159.9832 C.3     1  UNL1        0.1490
      6 C         140.5121  138.1822  161.2550 C.3     1  UNL1        0.1037
      7 N         138.2953  140.0712  158.5591 N.am    1  UNL1       -0.2999
      8 C         138.2676  141.5692  158.4862 C.2     1  UNL1        0.2488
      9 O         138.6500  142.3857  159.6850 O.2     1  UNL1       -0.2700
     10 H         138.0443  139.5353  157.7723 H       1  UNL1        0.1498
     11 C         137.8574  142.2507  157.2144 C.ar    1  UNL1        0.0882
     12 C         138.6290  143.4367  156.7165 C.ar    1  UNL1        0.0202
     13 C         138.2188  144.1182  155.4448 C.ar    1  UNL1        0.0709
     14 CL        138.9905  145.3043  154.9469 Cl      1  UNL1       -0.0810
     15 C         137.0371  143.6136  154.6709 C.ar    1  UNL1        0.0553
     16 N         136.6269  144.2951  153.3992 N.pl3   1  UNL1       -0.3563
     17 C         136.2654  142.4275  155.1689 C.ar    1  UNL1        0.0520
     18 C         136.6756  141.7461  156.4406 C.ar    1  UNL1        0.1443
     19 H         137.1333  145.0735  153.0724 H       1  UNL1        0.1424
     20 H         135.8513  143.9639  152.8913 H       1  UNL1        0.1424
     21 O         135.9040  140.5601  156.9385 O.3     1  UNL1       -0.4712
     22 C         134.5482  140.2563  156.3733 C.3     1  UNL1        0.2525
     23 O         141.0881  139.0191  158.8638 O.3     1  UNL1       -0.3505
     24 C         142.5600  138.9629  159.1478 C.3     1  UNL1        0.1741
     25 C         139.9360  137.3453  163.6461 C.3     1  UNL1        0.0722
     26 C         141.2609  137.6629  164.2736 C.3     1  UNL1        0.0174
     27 C         141.6517  141.9552  168.4477 C.2     1  UNL1        0.2256
     28 O         142.8925  142.0800  169.2812 O.2     1  UNL1       -0.2749
     29 N         141.5540  140.8821  167.4042 N.am    1  UNL1       -0.2795
     30 C         140.3132  140.7573  166.5707 C.3     1  UNL1        0.0934
     31 C         140.2155  139.6842  165.5272 C.3     1  UNL1        0.0216
     32 C         141.3586  138.7359  165.3171 C.3     1  UNL1        0.0048
     33 C         142.5994  138.8608  166.1506 C.3     1  UNL1        0.0216
     34 C         142.6971  139.9339  167.1942 C.3     1  UNL1        0.0934
     35 C         140.5194  143.8440  169.8262 C.3     1  UNL1        0.0101
     36 C         140.5086  142.9034  168.6577 C.3     1  UNL1        0.0853
@<TRIPOS>BOND
     1    35    36    1
     2    36    27    1
     3    27    28    2
     4    27    29   am
     5    29    30    1
     6    30    31    1
     7    31    32    1
     8    32    26    1
     9    26    25    1
    10    25     1    1
    11     1     2    1
    12     2     3    1
    13     3     4    1
    14     4     7    1
    15     7     8   am
    16     8     9    2
    17     8    11    1
    18    11    12   ar
    19    12    13   ar
    20    13    14    1
    21    13    15   ar
    22    15    16    1
    23    15    17   ar
    24    17    18   ar
    25    18    21    1
    26    21    22    1
    27     4     5    1
    28     5    23    1
    29    23    24    1
    30     5     6    1
    31    32    33    1
    32    33    34    1
    33    34    29    1
    34     6     1    1
    35    18    11   ar
    36     7    10    1
    37    16    19    1
    38    16    20    1
@<TRIPOS>MOLECULE
*****
 36 38 0 0 0
SMALL
GASTEIGER

@<TRIPOS>ATOM
      1 N         142.6663  138.4386  160.5042 N.3     1  UNL1       -0.2705
      2 C         141.2613  138.2134  160.9790 C.3     1  UNL1        0.0739
      3 C         140.9483  138.2617  162.4452 C.3     1  UNL1        0.0394
      4 C         142.0404  138.5351  163.4366 C.3     1  UNL1        0.1017
      5 C         143.4453  138.7602  162.9617 C.3     1  UNL1        0.1490
      6 C         143.7583  138.7120  161.4956 C.3     1  UNL1        0.1037
      7 N         141.7274  138.5833  164.9027 N.am    1  UNL1       -0.2999
      8 C         141.5860  139.9059  165.5963 C.2     1  UNL1        0.2488
      9 O         141.7576  141.1801  164.8237 O.2     1  UNL1       -0.2700
     10 H         141.6148  137.7470  165.4098 H       1  UNL1        0.1498
     11 C         141.2730  139.9541  167.0625 C.ar    1  UNL1        0.0882
     12 C         142.3862  139.9435  168.0678 C.ar    1  UNL1        0.0202
     13 C         142.0732  139.9918  169.5340 C.ar    1  UNL1        0.0709
     14 CL        143.1865  139.9811  170.5393 Cl      1  UNL1       -0.0810
     15 C         140.6471  140.0507  169.9949 C.ar    1  UNL1        0.0553
     16 N         140.3341  140.0989  171.4611 N.pl3   1  UNL1       -0.3563
     17 C         139.5338  140.0613  168.9896 C.ar    1  UNL1        0.0520
     18 C         139.8467  140.0131  167.5234 C.ar    1  UNL1        0.1443
     19 H         141.0648  140.0919  172.1209 H       1  UNL1        0.1424
     20 H         139.3980  140.1376  171.7636 H       1  UNL1        0.1424
     21 O         138.7335  140.0237  166.5181 O.3     1  UNL1       -0.4712
     22 C         138.0115  138.7518  166.1853 C.3     1  UNL1        0.2525
     23 O         144.5372  139.0336  163.9531 O.3     1  UNL1       -0.3505
     24 C         145.1847  140.3858  164.0019 C.3     1  UNL1        0.1741
     25 C         142.9793  138.3903  159.0380 C.3     1  UNL1        0.0722
     26 C         141.8766  138.1852  158.0420 C.3     1  UNL1        0.0174
     27 C         142.1331  133.5971  154.1842 C.2     1  UNL1        0.2256
     28 O         143.1769  132.5331  154.3526 O.2     1  UNL1       -0.2749
     29 N         142.0690  134.7441  155.1487 N.am    1  UNL1       -0.2795
     30 C         141.0252  135.8081  154.9803 C.3     1  UNL1        0.0934
     31 C         140.9610  136.9551  155.9448 C.3     1  UNL1        0.0216
     32 C         141.9407  137.0382  157.0776 C.3     1  UNL1        0.0048
     33 C         142.9845  135.9742  157.2459 C.3     1  UNL1        0.0216
     34 C         143.0487  134.8272  156.2815 C.3     1  UNL1        0.0934
     35 C         140.9405  132.2118  152.3380 C.3     1  UNL1        0.0101
     36 C         141.1535  133.5140  153.0514 C.3     1  UNL1        0.0853
@<TRIPOS>BOND
     1    35    36    1
     2    36    27    1
     3    27    28    2
     4    27    29   am
     5    29    30    1
     6    30    31    1
     7    31    32    1
     8    32    26    1
     9    26    25    1
    10    25     1    1
    11     1     2    1
    12     2     3    1
    13     3     4    1
    14     4     7    1
    15     7     8   am
    16     8     9    2
    17     8    11    1
    18    11    12   ar
    19    12    13   ar
    20    13    14    1
    21    13    15   ar
    22    15    16    1
    23    15    17   ar
    24    17    18   ar
    25    18    21    1
    26    21    22    1
    27     4     5    1
    28     5    23    1
    29    23    24    1
    30     5     6    1
    31    32    33    1
    32    33    34    1
    33    34    29    1
    34     6     1    1
    35    18    11   ar
    36     7    10    1
    37    16    19    1
    38    16    20    1
@<TRIPOS>MOLECULE
*****
 36 38 0 0 0
SMALL
GASTEIGER

@<TRIPOS>ATOM
      1 N         139.3098  139.0828  163.7615 N.3     1  UNL1       -0.2705
      2 C         138.2075  138.7446  162.8019 C.3     1  UNL1        0.0739
      3 C         138.1787  139.3744  161.4408 C.3     1  UNL1        0.0394
      4 C         139.2520  140.3423  161.0393 C.3     1  UNL1        0.1017
      5 C         140.3542  140.6804  161.9989 C.3     1  UNL1        0.1490
      6 C         140.3831  140.0506  163.3600 C.3     1  UNL1        0.1037
      7 N         139.2231  140.9721  159.6782 N.am    1  UNL1       -0.2999
      8 C         138.6626  142.3523  159.5022 C.2     1  UNL1        0.2488
      9 O         138.1309  143.1026  160.6872 O.2     1  UNL1       -0.2700
     10 H         139.5721  140.4796  158.9005 H       1  UNL1        0.1498
     11 C         138.6337  142.9820  158.1411 C.ar    1  UNL1        0.0882
     12 C         137.5333  142.6415  157.1803 C.ar    1  UNL1        0.0202
     13 C         137.5044  143.2712  155.8192 C.ar    1  UNL1        0.0709
     14 CL        136.4039  142.9306  154.8585 Cl      1  UNL1       -0.0810
     15 C         138.5759  144.2416  155.4189 C.ar    1  UNL1        0.0553
     16 N         138.5470  144.8713  154.0578 N.pl3   1  UNL1       -0.3563
     17 C         139.6764  144.5822  156.3797 C.ar    1  UNL1        0.0520
     18 C         139.7053  143.9524  157.7408 C.ar    1  UNL1        0.1443
     19 H         137.8248  144.6478  153.4272 H       1  UNL1        0.1424
     20 H         139.2503  145.5082  153.7951 H       1  UNL1        0.1424
     21 O         140.8057  144.2929  158.7016 O.3     1  UNL1       -0.4712
     22 C         142.1133  143.5612  158.6341 C.3     1  UNL1        0.2525
     23 O         141.4275  141.6483  161.5974 O.3     1  UNL1       -0.3505
     24 C         141.8468  142.7368  162.5405 C.3     1  UNL1        0.1741
     25 C         139.3387  138.4530  165.1226 C.3     1  UNL1        0.0722
     26 C         138.5391  139.0502  166.2424 C.3     1  UNL1        0.0174
     27 C         141.2917  142.1839  170.5555 C.2     1  UNL1        0.2256
     28 O         140.8072  142.0954  171.9723 O.2     1  UNL1       -0.2749
     29 N         140.6036  141.4004  169.4772 N.am    1  UNL1       -0.2795
     30 C         141.0881  141.4889  168.0604 C.3     1  UNL1        0.0934
     31 C         140.3999  140.7055  166.9821 C.3     1  UNL1        0.0216
     32 C         139.2272  139.8336  167.3207 C.3     1  UNL1        0.0048
     33 C         138.7427  139.7451  168.7375 C.3     1  UNL1        0.0216
     34 C         139.4309  140.5286  169.8157 C.3     1  UNL1        0.0934
     35 C         143.7991  142.4371  169.9238 C.3     1  UNL1        0.0101
     36 C         142.4644  143.0557  170.2169 C.3     1  UNL1        0.0853
@<TRIPOS>BOND
     1    35    36    1
     2    36    27    1
     3    27    28    2
     4    27    29   am
     5    29    30    1
     6    30    31    1
     7    31    32    1
     8    32    26    1
     9    26    25    1
    10    25     1    1
    11     1     2    1
    12     2     3    1
    13     3     4    1
    14     4     7    1
    15     7     8   am
    16     8     9    2
    17     8    11    1
    18    11    12   ar
    19    12    13   ar
    20    13    14    1
    21    13    15   ar
    22    15    16    1
    23    15    17   ar
    24    17    18   ar
    25    18    21    1
    26    21    22    1
    27     4     5    1
    28     5    23    1
    29    23    24    1
    30     5     6    1
    31    32    33    1
    32    33    34    1
    33    34    29    1
    34     6     1    1
    35    18    11   ar
    36     7    10    1
    37    16    19    1
    38    16    20    1
@<TRIPOS>MOLECULE
*****
 36 38 0 0 0
SMALL
GASTEIGER

@<TRIPOS>ATOM
      1 N         143.0259  138.8254  165.5102 N.3     1  UNL1       -0.2705
      2 C         144.2542  139.2994  164.7913 C.3     1  UNL1        0.0739
      3 C         144.3984  139.0631  163.3171 C.3     1  UNL1        0.0394
      4 C         143.3144  138.3528  162.5617 C.3     1  UNL1        0.1017
      5 C         142.0862  137.8789  163.2806 C.3     1  UNL1        0.1490
      6 C         141.9419  138.1151  164.7548 C.3     1  UNL1        0.1037
      7 N         143.4587  138.1166  161.0875 N.am    1  UNL1       -0.2999
      8 C         142.8301  139.0658  160.1107 C.2     1  UNL1        0.2488
      9 O         142.0572  140.2512  160.6082 O.2     1  UNL1       -0.2700
     10 H         143.9659  137.3385  160.7609 H       1  UNL1        0.1498
     11 C         142.9743  138.8295  158.6365 C.ar    1  UNL1        0.0882
     12 C         142.4057  137.5875  158.0168 C.ar    1  UNL1        0.0202
     13 C         142.5500  137.3513  156.5426 C.ar    1  UNL1        0.0709
     14 CL        141.9814  136.1092  155.9229 Cl      1  UNL1       -0.0810
     15 C         143.2628  138.3570  155.6880 C.ar    1  UNL1        0.0553
     16 N         143.4071  138.1207  154.2138 N.pl3   1  UNL1       -0.3563
     17 C         143.8315  139.5991  156.3077 C.ar    1  UNL1        0.0520
     18 C         143.6872  139.8354  157.7820 C.ar    1  UNL1        0.1443
     19 H         143.0339  137.3056  153.8071 H       1  UNL1        0.1424
     20 H         143.8750  138.7809  153.6529 H       1  UNL1        0.1424
     21 O         144.2558  141.0774  158.4017 O.3     1  UNL1       -0.4712
     22 C         144.4359  142.3143  157.5725 C.3     1  UNL1        0.2525
     23 O         141.0023  137.1686  162.5252 O.3     1  UNL1       -0.3505
     24 C         139.7363  137.8918  162.1725 C.3     1  UNL1        0.1741
     25 C         142.8816  139.0616  166.9844 C.3     1  UNL1        0.0722
     26 C         142.6313  140.4474  167.5009 C.3     1  UNL1        0.0174
     27 C         140.0310  144.5416  163.9687 C.2     1  UNL1        0.2256
     28 O         140.8765  145.4663  163.1442 O.2     1  UNL1       -0.2749
     29 N         140.6811  143.5180  164.8518 N.am    1  UNL1       -0.2795
     30 C         139.8356  142.5933  165.6763 C.3     1  UNL1        0.0934
     31 C         140.4857  141.5697  166.5594 C.3     1  UNL1        0.0216
     32 C         141.9813  141.4710  166.6179 C.3     1  UNL1        0.0048
     33 C         142.8268  142.3957  165.7934 C.3     1  UNL1        0.0216
     34 C         142.1767  143.4192  164.9103 C.3     1  UNL1        0.0934
     35 C         137.7637  143.7781  162.9558 C.3     1  UNL1        0.0101
     36 C         138.5355  144.6403  163.9102 C.3     1  UNL1        0.0853
@<TRIPOS>BOND
     1    35    36    1
     2    36    27    1
     3    27    28    2
     4    27    29   am
     5    29    30    1
     6    30    31    1
     7    31    32    1
     8    32    26    1
     9    26    25    1
    10    25     1    1
    11     1     2    1
    12     2     3    1
    13     3     4    1
    14     4     7    1
    15     7     8   am
    16     8     9    2
    17     8    11    1
    18    11    12   ar
    19    12    13   ar
    20    13    14    1
    21    13    15   ar
    22    15    16    1
    23    15    17   ar
    24    17    18   ar
    25    18    21    1
    26    21    22    1
    27     4     5    1
    28     5    23    1
    29    23    24    1
    30     5     6    1
    31    32    33    1
    32    33    34    1
    33    34    29    1
    34     6     1    1
    35    18    11   ar
    36     7    10    1
    37    16    19    1
    38    16    20    1
@<TRIPOS>MOLECULE
*****
 36 38 0 0 0
SMALL
GASTEIGER

@<TRIPOS>ATOM
      1 N         143.0334  138.6864  165.3759 N.3     1  UNL1       -0.2705
      2 C         144.0728  139.0481  164.3566 C.3     1  UNL1        0.0739
      3 C         143.8473  138.7268  162.9089 C.3     1  UNL1        0.0394
      4 C         142.5823  138.0438  162.4805 C.3     1  UNL1        0.1017
      5 C         141.5430  137.6822  163.4997 C.3     1  UNL1        0.1490
      6 C         141.7685  138.0035  164.9475 C.3     1  UNL1        0.1037
      7 N         142.3567  137.7225  161.0327 N.am    1  UNL1       -0.2999
      8 C         141.7867  138.7621  160.1138 C.2     1  UNL1        0.2488
      9 O         141.4423  140.1229  160.6425 O.2     1  UNL1       -0.2700
     10 H         142.5828  136.8294  160.6857 H       1  UNL1        0.1498
     11 C         141.5611  138.4408  158.6660 C.ar    1  UNL1        0.0882
     12 C         142.7243  138.0944  157.7846 C.ar    1  UNL1        0.0202
     13 C         142.4987  137.7731  156.3369 C.ar    1  UNL1        0.0709
     14 CL        143.6620  137.4268  155.4554 Cl      1  UNL1       -0.0810
     15 C         141.1100  137.7982  155.7706 C.ar    1  UNL1        0.0553
     16 N         140.8844  137.4769  154.3229 N.pl3   1  UNL1       -0.3563
     17 C         139.9467  138.1446  156.6521 C.ar    1  UNL1        0.0520
     18 C         140.1723  138.4659  158.0998 C.ar    1  UNL1        0.1443
     19 H         141.6479  137.2496  153.7444 H       1  UNL1        0.1424
     20 H         139.9729  137.4934  153.9512 H       1  UNL1        0.1424
     21 O         139.0091  138.8123  158.9812 O.3     1  UNL1       -0.4712
     22 C         138.3738  140.1677  158.8864 C.3     1  UNL1        0.2525
     23 O         140.2781  136.9993  163.0713 O.3     1  UNL1       -0.3505
     24 C         139.0417  137.8070  162.8081 C.3     1  UNL1        0.1741
     25 C         143.2590  139.0077  166.8236 C.3     1  UNL1        0.0722
     26 C         142.5703  140.1857  167.4466 C.3     1  UNL1        0.0174
     27 C         140.2655  144.4976  163.9688 C.2     1  UNL1        0.2256
     28 O         141.1767  145.4153  163.2088 O.2     1  UNL1       -0.2749
     29 N         140.8417  143.4197  164.8382 N.am    1  UNL1       -0.2795
     30 C         139.9306  142.5020  165.5982 C.3     1  UNL1        0.0934
     31 C         140.5068  141.4240  166.4677 C.3     1  UNL1        0.0216
     32 C         141.9941  141.2637  166.5771 C.3     1  UNL1        0.0048
     33 C         142.9053  142.1814  165.8171 C.3     1  UNL1        0.0216
     34 C         142.3291  143.2593  164.9477 C.3     1  UNL1        0.0934
     35 C         138.0241  143.9414  162.7786 C.3     1  UNL1        0.0101
     36 C         138.7782  144.6580  163.8593 C.3     1  UNL1        0.0853
@<TRIPOS>BOND
     1    35    36    1
     2    36    27    1
     3    27    28    2
     4    27    29   am
     5    29    30    1
     6    30    31    1
     7    31    32    1
     8    32    26    1
     9    26    25    1
    10    25     1    1
    11     1     2    1
    12     2     3    1
    13     3     4    1
    14     4     7    1
    15     7     8   am
    16     8     9    2
    17     8    11    1
    18    11    12   ar
    19    12    13   ar
    20    13    14    1
    21    13    15   ar
    22    15    16    1
    23    15    17   ar
    24    17    18   ar
    25    18    21    1
    26    21    22    1
    27     4     5    1
    28     5    23    1
    29    23    24    1
    30     5     6    1
    31    32    33    1
    32    33    34    1
    33    34    29    1
    34     6     1    1
    35    18    11   ar
    36     7    10    1
    37    16    19    1
    38    16    20    1
