@<TRIPOS>MOLECULE
*****
 35 37 0 0 0
SMALL
GASTEIGER

@<TRIPOS>ATOM
      1 N         145.4324  142.1490  162.8735 N.pl3   1  UNL1       -0.3568
      2 C         144.4584  142.6476  161.8474 C.ar    1  UNL1        0.0482
      3 C         144.7690  142.5050  160.3869 C.ar    1  UNL1        0.0452
      4 C         143.7951  143.0036  159.3608 C.ar    1  UNL1        0.1598
      5 F         144.1057  142.8609  157.9002 F       1  UNL1       -0.2027
      6 C         142.5106  143.6448  159.7952 C.ar    1  UNL1        0.1497
      7 C         142.2000  143.7874  161.2557 C.ar    1  UNL1        0.0280
      8 C         143.1739  143.2888  162.2818 C.ar    1  UNL1        0.0680
      9 H         146.2755  141.7282  162.5883 H       1  UNL1        0.1424
     10 H         145.2285  142.2426  163.8321 H       1  UNL1        0.1424
     11 C         142.8632  143.4315  163.7424 C.2     1  UNL1        0.2507
     12 O         143.1870  144.7101  164.4566 O.2     1  UNL1       -0.2698
     13 N         142.2288  142.2954  164.4886 N.am    1  UNL1       -0.2804
     14 H         142.0163  141.4562  164.0198 H       1  UNL1        0.1552
     15 C         141.9182  142.4380  165.9491 C.ar    1  UNL1        0.0505
     16 C         140.5555  142.8882  166.3856 C.ar    1  UNL1        0.0170
     17 C         140.2449  143.0308  167.8462 C.ar    1  UNL1        0.0308
     18 C         141.2969  142.7232  168.8702 C.ar    1  UNL1        0.1415
     19 F         140.9862  142.8658  170.3307 F       1  UNL1       -0.2043
     20 C         142.6595  142.2731  168.4337 C.ar    1  UNL1        0.0722
     21 C         142.9702  142.1305  166.9732 C.ar    1  UNL1        0.0181
     22 C         143.7115  141.9655  169.4578 C.3     1  UNL1        0.3432
     23 F         143.5857  140.7436  170.3186 F       1  UNL1       -0.1932
     24 F         144.8894  142.8799  169.6210 F       1  UNL1       -0.1932
     25 S         141.5366  144.1434  158.7691 S.O2    1  UNL1        0.0655
     26 O         140.9900  142.7552  158.6134 O.2     1  UNL1       -0.1527
     27 O         142.0832  145.5315  158.9248 O.2     1  UNL1       -0.1527
     28 N         140.5627  144.6420  157.7430 N.3     1  UNL1       -0.1553
     29 C         140.4922  146.1061  157.4250 C.3     1  UNL1        0.0983
     30 C         139.5183  146.6047  156.3989 C.3     1  UNL1        0.0484
     31 C         138.6148  145.6391  155.6908 C.3     1  UNL1        0.1134
     32 O         137.6409  146.1377  154.6648 O.3     1  UNL1       -0.3844
     33 C         138.6853  144.1750  156.0089 C.3     1  UNL1        0.0484
     34 C         139.6592  143.6764  157.0350 C.3     1  UNL1        0.0983
     35 H         138.0580  146.8351  154.1350 H       1  UNL1        0.2103
@<TRIPOS>BOND
     1     1     2    1
     2     2     3   ar
     3     3     4   ar
     4     4     5    1
     5     4     6   ar
     6     6    25    1
     7    25    26    2
     8    25    27    2
     9    25    28    1
    10    28    29    1
    11    29    30    1
    12    30    31    1
    13    31    32    1
    14    31    33    1
    15    33    34    1
    16     6     7   ar
    17     7     8   ar
    18     8    11    1
    19    11    12    2
    20    11    13   am
    21    13    15    1
    22    15    16   ar
    23    16    17   ar
    24    17    18   ar
    25    18    19    1
    26    18    20   ar
    27    20    22    1
    28    22    23    1
    29    22    24    1
    30    20    21   ar
    31     8     2   ar
    32    21    15   ar
    33    34    28    1
    34     1     9    1
    35     1    10    1
    36    32    35    1
    37    13    14    1
@<TRIPOS>MOLECULE
*****
 35 37 0 0 0
SMALL
GASTEIGER

@<TRIPOS>ATOM
      1 N         138.3606  137.5949  162.5474 N.pl3   1  UNL1       -0.3568
      2 C         138.9791  138.4022  163.6499 C.ar    1  UNL1        0.0482
      3 C         138.4729  138.2644  165.0552 C.ar    1  UNL1        0.0452
      4 C         139.0915  139.0716  166.1578 C.ar    1  UNL1        0.1598
      5 F         138.5852  138.9337  167.5631 F       1  UNL1       -0.2027
      6 C         140.2162  140.0168  165.8551 C.ar    1  UNL1        0.1497
      7 C         140.7224  140.1547  164.4499 C.ar    1  UNL1        0.0280
      8 C         140.1038  139.3474  163.3473 C.ar    1  UNL1        0.0680
      9 H         137.6223  136.9746  162.7460 H       1  UNL1        0.1424
     10 H         138.6928  137.6854  161.6250 H       1  UNL1        0.1424
     11 C         140.6101  139.4853  161.9420 C.2     1  UNL1        0.2507
     12 O         139.6732  139.8932  160.8440 O.2     1  UNL1       -0.2698
     13 N         142.0533  139.2153  161.6349 N.am    1  UNL1       -0.2804
     14 H         142.6682  138.9476  162.3556 H       1  UNL1        0.1552
     15 C         142.5595  139.3532  160.2297 C.ar    1  UNL1        0.0505
     16 C         143.1913  140.6381  159.7828 C.ar    1  UNL1        0.0170
     17 C         143.6976  140.7760  158.3775 C.ar    1  UNL1        0.0308
     18 C         143.5721  139.6289  157.4192 C.ar    1  UNL1        0.1415
     19 F         144.0783  139.7668  156.0140 F       1  UNL1       -0.2043
     20 C         142.9403  138.3439  157.8661 C.ar    1  UNL1        0.0722
     21 C         142.4340  138.2060  159.2713 C.ar    1  UNL1        0.0181
     22 C         142.8148  137.1968  156.9078 C.3     1  UNL1        0.3432
     23 F         143.9928  136.7808  156.0775 F       1  UNL1       -0.1932
     24 F         141.5113  136.4657  156.7797 F       1  UNL1       -0.1932
     25 S         140.8347  140.8241  166.9577 S.O2    1  UNL1        0.0655
     26 O         139.9368  141.9765  166.6176 O.2     1  UNL1       -0.1527
     27 O         141.7326  139.6716  167.2978 O.2     1  UNL1       -0.1527
     28 N         141.4533  141.6314  168.0603 N.3     1  UNL1       -0.1553
     29 C         142.8930  141.4228  168.4256 C.3     1  UNL1        0.0983
     30 C         143.5116  142.2301  169.5282 C.3     1  UNL1        0.0484
     31 C         142.6904  143.2459  170.2655 C.3     1  UNL1        0.1134
     32 O         143.3089  144.0532  171.3681 O.3     1  UNL1       -0.3844
     33 C         141.2506  143.4545  169.9002 C.3     1  UNL1        0.0484
     34 C         140.6320  142.6472  168.7976 C.3     1  UNL1        0.0983
     35 H         144.2134  144.3002  171.1197 H       1  UNL1        0.2103
@<TRIPOS>BOND
     1     1     2    1
     2     2     3   ar
     3     3     4   ar
     4     4     5    1
     5     4     6   ar
     6     6    25    1
     7    25    26    2
     8    25    27    2
     9    25    28    1
    10    28    29    1
    11    29    30    1
    12    30    31    1
    13    31    32    1
    14    31    33    1
    15    33    34    1
    16     6     7   ar
    17     7     8   ar
    18     8    11    1
    19    11    12    2
    20    11    13   am
    21    13    15    1
    22    15    16   ar
    23    16    17   ar
    24    17    18   ar
    25    18    19    1
    26    18    20   ar
    27    20    22    1
    28    22    23    1
    29    22    24    1
    30    20    21   ar
    31     8     2   ar
    32    21    15   ar
    33    34    28    1
    34     1     9    1
    35     1    10    1
    36    32    35    1
    37    13    14    1
@<TRIPOS>MOLECULE
*****
 35 37 0 0 0
SMALL
GASTEIGER

@<TRIPOS>ATOM
      1 N         138.3747  137.6205  162.5357 N.pl3   1  UNL1       -0.3568
      2 C         138.9953  138.4235  163.6403 C.ar    1  UNL1        0.0482
      3 C         138.4890  138.2832  165.0452 C.ar    1  UNL1        0.0452
      4 C         139.1096  139.0862  166.1498 C.ar    1  UNL1        0.1598
      5 F         138.6032  138.9459  167.5548 F       1  UNL1       -0.2027
      6 C         140.2365  140.0295  165.8494 C.ar    1  UNL1        0.1497
      7 C         140.7428  140.1698  164.4445 C.ar    1  UNL1        0.0280
      8 C         140.1222  139.3668  163.3399 C.ar    1  UNL1        0.0680
      9 H         137.6351  137.0014  162.7329 H       1  UNL1        0.1424
     10 H         138.7071  137.7126  161.6136 H       1  UNL1        0.1424
     11 C         140.6286  139.5071  161.9349 C.2     1  UNL1        0.2507
     12 O         139.6746  139.8259  160.8222 O.2     1  UNL1       -0.2698
     13 N         142.0890  139.3287  161.6427 N.am    1  UNL1       -0.2804
     14 H         142.7152  139.1195  162.3731 H       1  UNL1        0.1552
     15 C         142.5954  139.4690  160.2378 C.ar    1  UNL1        0.0505
     16 C         142.3175  138.3938  159.2295 C.ar    1  UNL1        0.0170
     17 C         142.8240  138.5341  157.8245 C.ar    1  UNL1        0.0308
     18 C         143.6082  139.7497  157.4279 C.ar    1  UNL1        0.1415
     19 F         144.1146  139.8900  156.0230 F       1  UNL1       -0.2043
     20 C         143.8861  140.8249  158.4362 C.ar    1  UNL1        0.0722
     21 C         143.3797  140.6846  159.8411 C.ar    1  UNL1        0.0181
     22 C         144.6703  142.0405  158.0396 C.3     1  UNL1        0.3432
     23 F         144.1478  143.4087  158.3634 F       1  UNL1       -0.1932
     24 F         145.9771  141.8878  157.3191 F       1  UNL1       -0.1932
     25 S         140.8571  140.8325  166.9540 S.O2    1  UNL1        0.0655
     26 O         141.7450  139.6734  167.2978 O.2     1  UNL1       -0.1527
     27 O         139.9692  141.9916  166.6102 O.2     1  UNL1       -0.1527
     28 N         141.4777  141.6355  168.0586 N.3     1  UNL1       -0.1553
     29 C         140.6585  142.6503  168.7996 C.3     1  UNL1        0.0983
     30 C         141.2791  143.4533  169.9042 C.3     1  UNL1        0.0484
     31 C         142.7189  143.2415  170.2677 C.3     1  UNL1        0.1134
     32 O         143.3395  144.0445  171.3723 O.3     1  UNL1       -0.3844
     33 C         143.5380  142.2267  169.5267 C.3     1  UNL1        0.0484
     34 C         142.9174  141.4237  168.4221 C.3     1  UNL1        0.0983
     35 H         142.7023  144.1442  172.0968 H       1  UNL1        0.2103
@<TRIPOS>BOND
     1     1     2    1
     2     2     3   ar
     3     3     4   ar
     4     4     5    1
     5     4     6   ar
     6     6    25    1
     7    25    26    2
     8    25    27    2
     9    25    28    1
    10    28    29    1
    11    29    30    1
    12    30    31    1
    13    31    32    1
    14    31    33    1
    15    33    34    1
    16     6     7   ar
    17     7     8   ar
    18     8    11    1
    19    11    12    2
    20    11    13   am
    21    13    15    1
    22    15    16   ar
    23    16    17   ar
    24    17    18   ar
    25    18    19    1
    26    18    20   ar
    27    20    22    1
    28    22    23    1
    29    22    24    1
    30    20    21   ar
    31     8     2   ar
    32    21    15   ar
    33    34    28    1
    34     1     9    1
    35     1    10    1
    36    32    35    1
    37    13    14    1
@<TRIPOS>MOLECULE
*****
 35 37 0 0 0
SMALL
GASTEIGER

@<TRIPOS>ATOM
      1 N         141.5875  145.4905  160.3264 N.pl3   1  UNL1       -0.3568
      2 C         141.3059  144.7794  161.6167 C.ar    1  UNL1        0.0482
      3 C         140.3611  145.3814  162.6141 C.ar    1  UNL1        0.0452
      4 C         140.0795  144.6704  163.9045 C.ar    1  UNL1        0.1598
      5 F         139.1346  145.2724  164.9020 F       1  UNL1       -0.2027
      6 C         140.7428  143.3573  164.1975 C.ar    1  UNL1        0.1497
      7 C         141.6876  142.7553  163.2001 C.ar    1  UNL1        0.0280
      8 C         141.9692  143.4664  161.9097 C.ar    1  UNL1        0.0680
      9 H         141.1521  146.3523  160.1341 H       1  UNL1        0.1424
     10 H         142.2076  145.0954  159.6717 H       1  UNL1        0.1424
     11 C         142.9141  142.8643  160.9123 C.2     1  UNL1        0.2507
     12 O         144.3383  142.5936  161.2970 O.2     1  UNL1       -0.2698
     13 N         142.4346  142.5330  159.5302 N.am    1  UNL1       -0.2804
     14 H         141.4997  142.7107  159.2777 H       1  UNL1        0.1552
     15 C         143.3794  141.9310  158.5328 C.ar    1  UNL1        0.0505
     16 C         143.0182  140.6540  157.8335 C.ar    1  UNL1        0.0170
     17 C         143.9631  140.0520  156.8361 C.ar    1  UNL1        0.0308
     18 C         145.2691  140.7269  156.5379 C.ar    1  UNL1        0.1415
     19 F         146.2138  140.1249  155.5405 F       1  UNL1       -0.2043
     20 C         145.6302  142.0039  157.2371 C.ar    1  UNL1        0.0722
     21 C         144.6854  142.6059  158.2345 C.ar    1  UNL1        0.0181
     22 C         146.9361  142.6788  156.9390 C.3     1  UNL1        0.3432
     23 F         147.8121  143.1472  158.0629 F       1  UNL1       -0.1932
     24 F         147.3661  142.8854  155.5168 F       1  UNL1       -0.1932
     25 S         140.4612  142.6462  165.4879 S.O2    1  UNL1        0.0655
     26 O         139.0995  142.2703  164.9836 O.2     1  UNL1       -0.1527
     27 O         141.8230  143.0222  165.9922 O.2     1  UNL1       -0.1527
     28 N         140.1797  141.9352  166.7783 N.3     1  UNL1       -0.1553
     29 C         139.5822  140.5594  166.7617 C.3     1  UNL1        0.0983
     30 C         139.3006  139.8484  168.0520 C.3     1  UNL1        0.0484
     31 C         139.6165  140.5130  169.3591 C.3     1  UNL1        0.1134
     32 O         139.3350  139.8020  170.6495 O.3     1  UNL1       -0.3844
     33 C         140.2140  141.8888  169.3757 C.3     1  UNL1        0.0484
     34 C         140.4956  142.5998  168.0853 C.3     1  UNL1        0.0983
     35 H         139.5587  138.8627  170.5565 H       1  UNL1        0.2103
@<TRIPOS>BOND
     1     1     2    1
     2     2     3   ar
     3     3     4   ar
     4     4     5    1
     5     4     6   ar
     6     6    25    1
     7    25    26    2
     8    25    27    2
     9    25    28    1
    10    28    29    1
    11    29    30    1
    12    30    31    1
    13    31    32    1
    14    31    33    1
    15    33    34    1
    16     6     7   ar
    17     7     8   ar
    18     8    11    1
    19    11    12    2
    20    11    13   am
    21    13    15    1
    22    15    16   ar
    23    16    17   ar
    24    17    18   ar
    25    18    19    1
    26    18    20   ar
    27    20    22    1
    28    22    23    1
    29    22    24    1
    30    20    21   ar
    31     8     2   ar
    32    21    15   ar
    33    34    28    1
    34     1     9    1
    35     1    10    1
    36    32    35    1
    37    13    14    1
@<TRIPOS>MOLECULE
*****
 35 37 0 0 0
SMALL
GASTEIGER

@<TRIPOS>ATOM
      1 N         138.8659  146.3646  161.6988 N.pl3   1  UNL1       -0.3568
      2 C         139.5690  145.2227  162.3709 C.ar    1  UNL1        0.0482
      3 C         139.5205  145.0864  163.8638 C.ar    1  UNL1        0.0452
      4 C         140.2236  143.9445  164.5359 C.ar    1  UNL1        0.1598
      5 F         140.1751  143.8082  166.0290 F       1  UNL1       -0.2027
      6 C         140.9752  142.9389  163.7151 C.ar    1  UNL1        0.1497
      7 C         141.0237  143.0752  162.2221 C.ar    1  UNL1        0.0280
      8 C         140.3206  144.2171  161.5500 C.ar    1  UNL1        0.0680
      9 H         138.3726  147.0246  162.2376 H       1  UNL1        0.1424
     10 H         138.8977  146.4541  160.7189 H       1  UNL1        0.1424
     11 C         140.3691  144.3534  160.0569 C.2     1  UNL1        0.2507
     12 O         139.3409  143.6672  159.2074 O.2     1  UNL1       -0.2698
     13 N         141.4459  145.1759  159.4135 N.am    1  UNL1       -0.2804
     14 H         142.1207  145.6263  159.9711 H       1  UNL1        0.1552
     15 C         141.4944  145.3123  157.9205 C.ar    1  UNL1        0.0505
     16 C         142.4795  144.5075  157.1256 C.ar    1  UNL1        0.0170
     17 C         142.5280  144.6438  155.6325 C.ar    1  UNL1        0.0308
     18 C         141.5915  145.5849  154.9345 C.ar    1  UNL1        0.1415
     19 F         141.6401  145.7212  153.4416 F       1  UNL1       -0.2043
     20 C         140.6065  146.3897  155.7295 C.ar    1  UNL1        0.0722
     21 C         140.5579  146.2534  157.2225 C.ar    1  UNL1        0.0181
     22 C         139.6699  147.3308  155.0315 C.3     1  UNL1        0.3432
     23 F         140.1960  148.5941  154.4172 F       1  UNL1       -0.1932
     24 F         138.2073  147.0086  154.9478 F       1  UNL1       -0.1932
     25 S         141.6783  141.7970  164.3871 S.O2    1  UNL1        0.0655
     26 O         140.4044  141.0051  164.3744 O.2     1  UNL1       -0.1527
     27 O         142.9522  142.5888  164.3999 O.2     1  UNL1       -0.1527
     28 N         142.3814  140.6551  165.0592 N.3     1  UNL1       -0.1553
     29 C         142.0033  140.2590  166.4557 C.3     1  UNL1        0.0983
     30 C         142.7063  139.1171  167.1278 C.3     1  UNL1        0.0484
     31 C         143.7875  138.3712  166.4034 C.3     1  UNL1        0.1134
     32 O         144.4906  137.2293  167.0755 O.3     1  UNL1       -0.3844
     33 C         144.1656  138.7673  165.0070 C.3     1  UNL1        0.0484
     34 C         143.4625  139.9092  164.3349 C.3     1  UNL1        0.0983
     35 H         143.8494  136.7099  167.5853 H       1  UNL1        0.2103
@<TRIPOS>BOND
     1     1     2    1
     2     2     3   ar
     3     3     4   ar
     4     4     5    1
     5     4     6   ar
     6     6    25    1
     7    25    26    2
     8    25    27    2
     9    25    28    1
    10    28    29    1
    11    29    30    1
    12    30    31    1
    13    31    32    1
    14    31    33    1
    15    33    34    1
    16     6     7   ar
    17     7     8   ar
    18     8    11    1
    19    11    12    2
    20    11    13   am
    21    13    15    1
    22    15    16   ar
    23    16    17   ar
    24    17    18   ar
    25    18    19    1
    26    18    20   ar
    27    20    22    1
    28    22    23    1
    29    22    24    1
    30    20    21   ar
    31     8     2   ar
    32    21    15   ar
    33    34    28    1
    34     1     9    1
    35     1    10    1
    36    32    35    1
    37    13    14    1
@<TRIPOS>MOLECULE
*****
 35 37 0 0 0
SMALL
GASTEIGER

@<TRIPOS>ATOM
      1 N         138.7805  137.5302  163.7216 N.pl3   1  UNL1       -0.3568
      2 C         138.9821  138.7082  162.8151 C.ar    1  UNL1        0.0482
      3 C         138.6768  138.5892  161.3514 C.ar    1  UNL1        0.0452
      4 C         138.8784  139.7672  160.4450 C.ar    1  UNL1        0.1598
      5 F         138.5730  139.6481  158.9812 F       1  UNL1       -0.2027
      6 C         139.3854  141.0642  161.0022 C.ar    1  UNL1        0.1497
      7 C         139.6908  141.1832  162.4660 C.ar    1  UNL1        0.0280
      8 C         139.4892  140.0052  163.3724 C.ar    1  UNL1        0.0680
      9 H         138.4477  136.6789  163.3558 H       1  UNL1        0.1424
     10 H         138.9809  137.6083  164.6823 H       1  UNL1        0.1424
     11 C         139.7945  140.1243  164.8362 C.2     1  UNL1        0.2507
     12 O         138.8522  139.5439  165.8486 O.2     1  UNL1       -0.2698
     13 N         141.0424  140.8238  165.2875 N.am    1  UNL1       -0.2804
     14 H         141.6609  141.2047  164.6230 H       1  UNL1        0.1552
     15 C         141.3478  140.9429  166.7512 C.ar    1  UNL1        0.0505
     16 C         142.3665  140.0396  167.3808 C.ar    1  UNL1        0.0170
     17 C         142.6719  140.1588  168.8445 C.ar    1  UNL1        0.0308
     18 C         141.9586  141.1812  169.6787 C.ar    1  UNL1        0.1415
     19 F         142.2640  141.3003  171.1424 F       1  UNL1       -0.2043
     20 C         140.9399  142.0844  169.0492 C.ar    1  UNL1        0.0722
     21 C         140.6345  141.9653  167.5855 C.ar    1  UNL1        0.0181
     22 C         140.2266  143.1068  169.8834 C.3     1  UNL1        0.3432
     23 F         139.0712  142.6962  170.7473 F       1  UNL1       -0.1932
     24 F         140.6687  144.5399  169.8536 F       1  UNL1       -0.1932
     25 S         139.5871  142.2422  160.0958 S.O2    1  UNL1        0.0655
     26 O         140.9423  141.7207  159.7195 O.2     1  UNL1       -0.1527
     27 O         138.2319  142.7637  160.4720 O.2     1  UNL1       -0.1527
     28 N         139.7888  143.4202  159.1893 N.3     1  UNL1       -0.1553
     29 C         139.3569  143.3453  157.7548 C.3     1  UNL1        0.0983
     30 C         139.5586  144.5233  156.8484 C.3     1  UNL1        0.0484
     31 C         140.1921  145.7762  157.3764 C.3     1  UNL1        0.1134
     32 O         140.3937  146.9542  156.4700 O.3     1  UNL1       -0.3844
     33 C         140.6239  145.8511  158.8109 C.3     1  UNL1        0.0484
     34 C         140.4222  144.6731  159.7174 C.3     1  UNL1        0.0983
     35 H         139.6236  147.0500  155.8881 H       1  UNL1        0.2103
@<TRIPOS>BOND
     1     1     2    1
     2     2     3   ar
     3     3     4   ar
     4     4     5    1
     5     4     6   ar
     6     6    25    1
     7    25    26    2
     8    25    27    2
     9    25    28    1
    10    28    29    1
    11    29    30    1
    12    30    31    1
    13    31    32    1
    14    31    33    1
    15    33    34    1
    16     6     7   ar
    17     7     8   ar
    18     8    11    1
    19    11    12    2
    20    11    13   am
    21    13    15    1
    22    15    16   ar
    23    16    17   ar
    24    17    18   ar
    25    18    19    1
    26    18    20   ar
    27    20    22    1
    28    22    23    1
    29    22    24    1
    30    20    21   ar
    31     8     2   ar
    32    21    15   ar
    33    34    28    1
    34     1     9    1
    35     1    10    1
    36    32    35    1
    37    13    14    1
@<TRIPOS>MOLECULE
*****
 35 37 0 0 0
SMALL
GASTEIGER

@<TRIPOS>ATOM
      1 N         138.7654  138.3482  160.6667 N.pl3   1  UNL1       -0.3568
      2 C         139.1730  138.6415  162.0801 C.ar    1  UNL1        0.0482
      3 C         138.8650  137.6571  163.1691 C.ar    1  UNL1        0.0452
      4 C         139.2727  137.9504  164.5826 C.ar    1  UNL1        0.1598
      5 F         138.9646  136.9659  165.6716 F       1  UNL1       -0.2027
      6 C         139.9883  139.2281  164.9070 C.ar    1  UNL1        0.1497
      7 C         140.2963  140.2125  163.8179 C.ar    1  UNL1        0.0280
      8 C         139.8887  139.9192  162.4045 C.ar    1  UNL1        0.0680
      9 H         138.2957  137.5096  160.4538 H       1  UNL1        0.1424
     10 H         138.9676  138.9943  159.9519 H       1  UNL1        0.1424
     11 C         140.1967  140.9037  161.3154 C.2     1  UNL1        0.2507
     12 O         141.0526  140.4937  160.1539 O.2     1  UNL1       -0.2698
     13 N         139.6488  142.2982  161.3880 N.am    1  UNL1       -0.2804
     14 H         139.0871  142.5672  162.1504 H       1  UNL1        0.1552
     15 C         139.9568  143.2826  160.2991 C.ar    1  UNL1        0.0505
     16 C         140.8617  144.4469  160.5744 C.ar    1  UNL1        0.0170
     17 C         141.1696  145.4314  159.4853 C.ar    1  UNL1        0.0308
     18 C         140.5728  145.2516  158.1210 C.ar    1  UNL1        0.1415
     19 F         140.8808  146.2360  157.0320 F       1  UNL1       -0.2043
     20 C         139.6680  144.0873  157.8457 C.ar    1  UNL1        0.0722
     21 C         139.3600  143.1029  158.9346 C.ar    1  UNL1        0.0181
     22 C         139.0711  143.9075  156.4814 C.3     1  UNL1        0.3432
     23 F         139.9304  144.0577  155.2611 F       1  UNL1       -0.1932
     24 F         137.6149  143.5776  156.3373 F       1  UNL1       -0.1932
     25 S         140.3959  139.5214  166.3204 S.O2    1  UNL1        0.0655
     26 O         141.7932  139.0723  166.0106 O.2     1  UNL1       -0.1527
     27 O         138.9987  139.9705  166.6302 O.2     1  UNL1       -0.1527
     28 N         140.8036  139.8147  167.7339 N.3     1  UNL1       -0.1553
     29 C         139.7669  140.1898  168.7509 C.3     1  UNL1        0.0983
     30 C         140.1745  140.4831  170.1644 C.3     1  UNL1        0.0484
     31 C         141.6188  140.4014  170.5607 C.3     1  UNL1        0.1134
     32 O         142.0265  140.6947  171.9742 O.3     1  UNL1       -0.3844
     33 C         142.6556  140.0263  169.5436 C.3     1  UNL1        0.0484
     34 C         142.2479  139.7330  168.1302 C.3     1  UNL1        0.0983
     35 H         141.3706  140.3217  172.5838 H       1  UNL1        0.2103
@<TRIPOS>BOND
     1     1     2    1
     2     2     3   ar
     3     3     4   ar
     4     4     5    1
     5     4     6   ar
     6     6    25    1
     7    25    26    2
     8    25    27    2
     9    25    28    1
    10    28    29    1
    11    29    30    1
    12    30    31    1
    13    31    32    1
    14    31    33    1
    15    33    34    1
    16     6     7   ar
    17     7     8   ar
    18     8    11    1
    19    11    12    2
    20    11    13   am
    21    13    15    1
    22    15    16   ar
    23    16    17   ar
    24    17    18   ar
    25    18    19    1
    26    18    20   ar
    27    20    22    1
    28    22    23    1
    29    22    24    1
    30    20    21   ar
    31     8     2   ar
    32    21    15   ar
    33    34    28    1
    34     1     9    1
    35     1    10    1
    36    32    35    1
    37    13    14    1
@<TRIPOS>MOLECULE
*****
 35 37 0 0 0
SMALL
GASTEIGER

@<TRIPOS>ATOM
      1 N         144.1802  143.7468  164.3022 N.pl3   1  UNL1       -0.3568
      2 C         144.0027  142.8370  163.1229 C.ar    1  UNL1        0.0482
      3 C         144.6039  143.2009  161.7977 C.ar    1  UNL1        0.0452
      4 C         144.4264  142.2911  160.6184 C.ar    1  UNL1        0.1598
      5 F         145.0276  142.6551  159.2932 F       1  UNL1       -0.2027
      6 C         143.6477  141.0174  160.7642 C.ar    1  UNL1        0.1497
      7 C         143.0465  140.6535  162.0894 C.ar    1  UNL1        0.0280
      8 C         143.2240  141.5633  163.2687 C.ar    1  UNL1        0.0680
      9 H         144.6913  144.5827  164.2064 H       1  UNL1        0.1424
     10 H         143.7856  143.5079  165.1719 H       1  UNL1        0.1424
     11 C         142.6228  141.1993  164.5939 C.2     1  UNL1        0.2507
     12 O         143.3479  140.2632  165.5147 O.2     1  UNL1       -0.2698
     13 N         141.2965  141.7716  164.9983 N.am    1  UNL1       -0.2804
     14 H         140.8207  142.3860  164.3939 H       1  UNL1        0.1552
     15 C         140.6953  141.4076  166.3234 C.ar    1  UNL1        0.0505
     16 C         139.9294  140.1266  166.4731 C.ar    1  UNL1        0.0170
     17 C         139.3282  139.7627  167.7983 C.ar    1  UNL1        0.0308
     18 C         139.4928  140.6798  168.9738 C.ar    1  UNL1        0.1415
     19 F         138.8916  140.3159  170.2989 F       1  UNL1       -0.2043
     20 C         140.2587  141.9609  168.8241 C.ar    1  UNL1        0.0722
     21 C         140.8599  142.3248  167.4990 C.ar    1  UNL1        0.0181
     22 C         140.4233  142.8780  169.9996 C.3     1  UNL1        0.3432
     23 F         140.3120  144.3623  169.8141 F       1  UNL1       -0.1932
     24 F         140.6992  142.3108  171.3606 F       1  UNL1       -0.1932
     25 S         143.4702  140.1076  159.5849 S.O2    1  UNL1        0.0655
     26 O         144.4205  139.1239  160.2008 O.2     1  UNL1       -0.1527
     27 O         142.5200  141.0913  158.9691 O.2     1  UNL1       -0.1527
     28 N         143.2927  139.1978  158.4056 N.3     1  UNL1       -0.1553
     29 C         142.7543  137.8117  158.6020 C.3     1  UNL1        0.0983
     30 C         142.5768  136.9019  157.4227 C.3     1  UNL1        0.0484
     31 C         142.9377  137.3783  156.0470 C.3     1  UNL1        0.1134
     32 O         142.7602  136.4685  154.8676 O.3     1  UNL1       -0.3844
     33 C         143.4761  138.7644  155.8505 C.3     1  UNL1        0.0484
     34 C         143.6536  139.6742  157.0298 C.3     1  UNL1        0.0983
     35 H         141.9369  135.9656  154.9683 H       1  UNL1        0.2103
@<TRIPOS>BOND
     1     1     2    1
     2     2     3   ar
     3     3     4   ar
     4     4     5    1
     5     4     6   ar
     6     6    25    1
     7    25    26    2
     8    25    27    2
     9    25    28    1
    10    28    29    1
    11    29    30    1
    12    30    31    1
    13    31    32    1
    14    31    33    1
    15    33    34    1
    16     6     7   ar
    17     7     8   ar
    18     8    11    1
    19    11    12    2
    20    11    13   am
    21    13    15    1
    22    15    16   ar
    23    16    17   ar
    24    17    18   ar
    25    18    19    1
    26    18    20   ar
    27    20    22    1
    28    22    23    1
    29    22    24    1
    30    20    21   ar
    31     8     2   ar
    32    21    15   ar
    33    34    28    1
    34     1     9    1
    35     1    10    1
    36    32    35    1
    37    13    14    1
@<TRIPOS>MOLECULE
*****
 35 37 0 0 0
SMALL
GASTEIGER

@<TRIPOS>ATOM
      1 N         139.1963  145.1588  164.7238 N.pl3   1  UNL1       -0.3568
      2 C         139.9676  144.7397  163.5075 C.ar    1  UNL1        0.0482
      3 C         139.8469  145.5252  162.2354 C.ar    1  UNL1        0.0452
      4 C         140.6183  145.1061  161.0191 C.ar    1  UNL1        0.1598
      5 F         140.4976  145.8916  159.7469 F       1  UNL1       -0.2027
      6 C         141.5104  143.9015  161.0750 C.ar    1  UNL1        0.1497
      7 C         141.6310  143.1160  162.3471 C.ar    1  UNL1        0.0280
      8 C         140.8597  143.5351  163.5634 C.ar    1  UNL1        0.0680
      9 H         138.6108  145.9494  164.6871 H       1  UNL1        0.1424
     10 H         139.2755  144.6433  165.5588 H       1  UNL1        0.1424
     11 C         140.9804  142.7495  164.8356 C.2     1  UNL1        0.2507
     12 O         139.7462  142.3252  165.5750 O.2     1  UNL1       -0.2698
     13 N         142.3353  142.3884  165.3683 N.am    1  UNL1       -0.2804
     14 H         143.1453  142.6669  164.8830 H       1  UNL1        0.1552
     15 C         142.4560  141.6029  166.6405 C.ar    1  UNL1        0.0505
     16 C         142.6344  140.1144  166.5888 C.ar    1  UNL1        0.0170
     17 C         142.7551  139.3289  167.8610 C.ar    1  UNL1        0.0308
     18 C         142.6975  140.0319  169.1848 C.ar    1  UNL1        0.1415
     19 F         142.8183  139.2463  170.4569 F       1  UNL1       -0.2043
     20 C         142.5192  141.5203  169.2365 C.ar    1  UNL1        0.0722
     21 C         142.3985  142.3058  167.9644 C.ar    1  UNL1        0.0181
     22 C         142.4616  142.2233  170.5603 C.3     1  UNL1        0.3432
     23 F         143.1457  143.5464  170.7373 F       1  UNL1       -0.1932
     24 F         141.7199  141.6031  171.7072 F       1  UNL1       -0.1932
     25 S         142.2817  143.4824  159.8587 S.O2    1  UNL1        0.0655
     26 O         140.9953  143.2287  159.1302 O.2     1  UNL1       -0.1527
     27 O         143.5682  143.7360  160.5872 O.2     1  UNL1       -0.1527
     28 N         143.0531  143.0632  158.6424 N.3     1  UNL1       -0.1553
     29 C         142.4264  143.1685  157.2837 C.3     1  UNL1        0.0983
     30 C         143.1977  142.7494  156.0675 C.3     1  UNL1        0.0484
     31 C         144.5958  142.2250  156.2099 C.3     1  UNL1        0.1134
     32 O         145.3672  141.8059  154.9936 O.3     1  UNL1       -0.3844
     33 C         145.2225  142.1197  157.5686 C.3     1  UNL1        0.0484
     34 C         144.4512  142.5389  158.7848 C.3     1  UNL1        0.0983
     35 H         145.1908  142.4264  154.2692 H       1  UNL1        0.2103
@<TRIPOS>BOND
     1     1     2    1
     2     2     3   ar
     3     3     4   ar
     4     4     5    1
     5     4     6   ar
     6     6    25    1
     7    25    26    2
     8    25    27    2
     9    25    28    1
    10    28    29    1
    11    29    30    1
    12    30    31    1
    13    31    32    1
    14    31    33    1
    15    33    34    1
    16     6     7   ar
    17     7     8   ar
    18     8    11    1
    19    11    12    2
    20    11    13   am
    21    13    15    1
    22    15    16   ar
    23    16    17   ar
    24    17    18   ar
    25    18    19    1
    26    18    20   ar
    27    20    22    1
    28    22    23    1
    29    22    24    1
    30    20    21   ar
    31     8     2   ar
    32    21    15   ar
    33    34    28    1
    34     1     9    1
    35     1    10    1
    36    32    35    1
    37    13    14    1
