@<TRIPOS>MOLECULE
*****
 31 36 0 0 0
SMALL
GASTEIGER

@<TRIPOS>ATOM
      1 C         139.2436  140.2713  166.2083 C.ar    1  UNL1        0.0828
      2 C         139.3678  138.8838  165.6520 C.ar    1  UNL1        0.0222
      3 C         139.2026  138.6484  164.1798 C.ar    1  UNL1        0.0382
      4 C         138.9132  139.8006  163.2640 C.ar    1  UNL1        0.1361
      5 C         138.7890  141.1880  163.8202 C.ar    1  UNL1        0.0372
      6 C         138.9542  141.4234  165.2925 C.ar    1  UNL1        0.0198
      7 C         138.4997  142.3402  162.9043 C.3     1  UNL1        0.1581
      8 C         138.2143  143.5840  162.1159 C.3     1  UNL1        0.2351
      9 O         138.1773  144.7400  163.0711 O.2     1  UNL1       -0.4478
     10 C         138.4397  144.2108  164.4498 C.2     1  UNL1        0.2770
     11 N         138.4935  145.0221  165.7102 N.pl3   1  UNL1       -0.3133
     12 N         138.6390  142.7275  164.3468 N.2     1  UNL1       -0.2202
     13 C         138.3345  142.1048  161.4322 C.3     1  UNL1        0.1141
     14 C         138.4152  141.7834  161.6877 C.3     1  UNL1        0.1501
     15 O         138.3304  142.1213  161.4191 O.3     1  UNL1       -0.3532
     16 C         138.4152  141.7834  161.6877 C.3     1  UNL1        0.1501
     17 C         138.4587  140.7174  160.8759 C.3     1  UNL1        0.1395
     18 C         138.1730  141.5877  159.6881 C.3     1  UNL1        0.0404
     19 C         138.2251  140.3845  158.7938 C.3     1  UNL1        0.0072
     20 C         138.5107  139.5142  159.9817 C.3     1  UNL1        0.0404
     21 O         138.7481  139.5653  161.7918 O.3     1  UNL1       -0.4826
     22 H         138.3490  145.9953  165.6757 H       1  UNL1        0.1466
     23 H         138.6734  144.5814  166.5720 H       1  UNL1        0.1466
     24 C         140.0401  141.5009  169.8026 C.ar    1  UNL1        0.0473
     25 C         139.2857  140.2365  170.0893 C.ar    1  UNL1        0.1202
     26 N         138.8955  139.6220  168.7778 N.ar    1  UNL1       -0.1637
     27 N         139.4088  140.5066  167.6805 N.ar    1  UNL1       -0.2284
     28 C         140.1161  141.6677  168.3138 C.ar    1  UNL1        0.1001
     29 C         140.6172  142.4344  170.8251 C.3     1  UNL1        0.1718
     30 C         143.1173  142.9027  170.2956 C.3     1  UNL1        0.1746
     31 O         141.7061  143.3906  170.4378 O.3     1  UNL1       -0.3462
@<TRIPOS>BOND
     1    30    31    1
     2    31    29    1
     3    29    24    1
     4    24    25   ar
     5    25    26   ar
     6    26    27   ar
     7    27     1    1
     8     1     2   ar
     9     2     3   ar
    10     3     4   ar
    11     4     5   ar
    12     5     6   ar
    13     5     7    1
    14     7     8    1
    15     8     9    1
    16     9    10    1
    17    10    11    1
    18    10    12    2
    19     7    13    1
    20    13    14    1
    21    14    15    1
    22    15    16    1
    23    13    17    1
    24    17    18    1
    25    18    19    1
    26    19    20    1
    27    17    21    1
    28    27    28   ar
    29    28    24   ar
    30     6     1   ar
    31    12     7    1
    32    16    13    1
    33    20    17    1
    34    21     4    1
    35    11    22    1
    36    11    23    1
@<TRIPOS>MOLECULE
*****
 31 36 0 0 0
SMALL
GASTEIGER

@<TRIPOS>ATOM
      1 C         142.7760  140.4163  163.9396 C.ar    1  UNL1        0.0828
      2 C         143.6383  141.3849  164.6934 C.ar    1  UNL1        0.0222
      3 C         143.2552  141.8079  166.0806 C.ar    1  UNL1        0.0382
      4 C         142.0098  141.2623  166.7140 C.ar    1  UNL1        0.1361
      5 C         141.1475  140.2937  165.9603 C.ar    1  UNL1        0.0372
      6 C         141.5306  139.8706  164.5731 C.ar    1  UNL1        0.0198
      7 C         139.9021  139.7480  166.5937 C.3     1  UNL1        0.1581
      8 C         138.6346  139.1214  167.0945 C.3     1  UNL1        0.2351
      9 O         138.1050  138.2220  166.0171 O.2     1  UNL1       -0.4478
     10 C         139.0451  138.2928  164.8505 C.2     1  UNL1        0.2770
     11 N         138.9002  137.5508  163.5550 N.pl3   1  UNL1       -0.3133
     12 N         140.1559  139.2359  165.2068 N.2     1  UNL1       -0.2202
     13 C         139.5190  140.1710  167.9809 C.3     1  UNL1        0.1141
     14 C         139.8665  140.3233  167.8042 C.3     1  UNL1        0.1501
     15 O         139.5012  140.1632  167.9899 O.3     1  UNL1       -0.3532
     16 C         139.8665  140.3233  167.8042 C.3     1  UNL1        0.1501
     17 C         140.3813  141.1396  168.7346 C.3     1  UNL1        0.1395
     18 C         139.2499  140.8206  169.6665 C.3     1  UNL1        0.0404
     19 C         139.8395  141.7379  170.6965 C.3     1  UNL1        0.0072
     20 C         140.9709  142.0570  169.7647 C.3     1  UNL1        0.0404
     21 O         141.6267  141.6853  168.1012 O.3     1  UNL1       -0.4826
     22 H         138.1321  136.9511  163.4145 H       1  UNL1        0.1466
     23 H         139.5731  137.6635  162.8453 H       1  UNL1        0.1466
     24 C         143.4523  139.9742  160.1433 C.ar    1  UNL1        0.0473
     25 C         144.0450  138.7104  160.6924 C.ar    1  UNL1        0.1202
     26 N         143.8637  138.7222  162.1813 N.ar    1  UNL1       -0.1637
     27 N         143.1591  139.9933  162.5525 N.ar    1  UNL1       -0.2284
     28 C         142.9048  140.7670  161.2929 C.ar    1  UNL1        0.1001
     29 C         143.4139  140.3749  158.6983 C.3     1  UNL1        0.1718
     30 C         145.2133  140.9526  156.9155 C.3     1  UNL1        0.1746
     31 O         144.5094  139.9407  157.7702 O.3     1  UNL1       -0.3462
@<TRIPOS>BOND
     1    30    31    1
     2    31    29    1
     3    29    24    1
     4    24    25   ar
     5    25    26   ar
     6    26    27   ar
     7    27     1    1
     8     1     2   ar
     9     2     3   ar
    10     3     4   ar
    11     4     5   ar
    12     5     6   ar
    13     5     7    1
    14     7     8    1
    15     8     9    1
    16     9    10    1
    17    10    11    1
    18    10    12    2
    19     7    13    1
    20    13    14    1
    21    14    15    1
    22    15    16    1
    23    13    17    1
    24    17    18    1
    25    18    19    1
    26    19    20    1
    27    17    21    1
    28    27    28   ar
    29    28    24   ar
    30     6     1   ar
    31    12     7    1
    32    16    13    1
    33    20    17    1
    34    21     4    1
    35    11    22    1
    36    11    23    1
@<TRIPOS>MOLECULE
*****
 31 36 0 0 0
SMALL
GASTEIGER

@<TRIPOS>ATOM
      1 C         142.7357  142.5793  165.9028 C.ar    1  UNL1        0.0828
      2 C         143.9518  141.9004  165.3458 C.ar    1  UNL1        0.0222
      3 C         144.2191  141.9327  163.8702 C.ar    1  UNL1        0.0382
      4 C         143.2702  142.6439  162.9515 C.ar    1  UNL1        0.1361
      5 C         142.0541  143.3227  163.5085 C.ar    1  UNL1        0.0372
      6 C         141.7868  143.2904  164.9842 C.ar    1  UNL1        0.0198
      7 C         141.1052  144.0339  162.5898 C.3     1  UNL1        0.1581
      8 C         140.0720  144.7802  161.7989 C.3     1  UNL1        0.2351
      9 O         139.0370  145.2932  162.7558 O.2     1  UNL1       -0.4478
     10 C         139.4305  144.8640  164.1382 C.2     1  UNL1        0.2770
     11 N         138.6780  145.1608  165.4012 N.pl3   1  UNL1       -0.3133
     12 N         140.7088  144.0857  164.0356 N.2     1  UNL1       -0.2202
     13 C         141.3725  144.0662  161.1142 C.3     1  UNL1        0.1141
     14 C         141.6372  143.8678  161.3705 C.3     1  UNL1        0.1501
     15 O         141.3589  144.0764  161.1011 O.3     1  UNL1       -0.3532
     16 C         141.6372  143.8678  161.3705 C.3     1  UNL1        0.1501
     17 C         142.5886  143.3874  160.5572 C.3     1  UNL1        0.1395
     18 C         141.8937  143.9777  159.3661 C.3     1  UNL1        0.0404
     19 C         142.9665  143.4331  158.4703 C.3     1  UNL1        0.0072
     20 C         143.6614  142.8428  159.6614 C.3     1  UNL1        0.0404
     21 O         143.5374  142.6763  161.4759 O.3     1  UNL1       -0.4826
     22 H         137.8438  145.6824  165.3662 H       1  UNL1        0.1466
     23 H         139.0183  144.8340  166.2653 H       1  UNL1        0.1466
     24 C         141.3193  142.5080  169.5158 C.ar    1  UNL1        0.0473
     25 C         142.7952  142.4863  169.7826 C.ar    1  UNL1        0.1202
     26 N         143.5054  142.5103  168.4616 N.ar    1  UNL1       -0.1637
     27 N         142.4685  142.5469  167.3784 N.ar    1  UNL1       -0.2284
     28 C         141.1174  142.5455  168.0299 C.ar    1  UNL1        0.1001
     29 C         140.2356  142.4947  170.5528 C.3     1  UNL1        0.1718
     30 C         139.1047  140.2287  169.9725 C.3     1  UNL1        0.1746
     31 O         138.9951  141.6811  170.3309 O.3     1  UNL1       -0.3462
@<TRIPOS>BOND
     1    30    31    1
     2    31    29    1
     3    29    24    1
     4    24    25   ar
     5    25    26   ar
     6    26    27   ar
     7    27     1    1
     8     1     2   ar
     9     2     3   ar
    10     3     4   ar
    11     4     5   ar
    12     5     6   ar
    13     5     7    1
    14     7     8    1
    15     8     9    1
    16     9    10    1
    17    10    11    1
    18    10    12    2
    19     7    13    1
    20    13    14    1
    21    14    15    1
    22    15    16    1
    23    13    17    1
    24    17    18    1
    25    18    19    1
    26    19    20    1
    27    17    21    1
    28    27    28   ar
    29    28    24   ar
    30     6     1   ar
    31    12     7    1
    32    16    13    1
    33    20    17    1
    34    21     4    1
    35    11    22    1
    36    11    23    1
@<TRIPOS>MOLECULE
*****
 31 36 0 0 0
SMALL
GASTEIGER

@<TRIPOS>ATOM
      1 C         138.6818  141.4245  159.4613 C.ar    1  UNL1        0.0828
      2 C         138.9434  139.9708  159.2002 C.ar    1  UNL1        0.0222
      3 C         138.9572  138.9948  160.3391 C.ar    1  UNL1        0.0382
      4 C         138.7093  139.4725  161.7392 C.ar    1  UNL1        0.1361
      5 C         138.4477  140.9262  162.0004 C.ar    1  UNL1        0.0372
      6 C         138.4339  141.9023  160.8614 C.ar    1  UNL1        0.0198
      7 C         138.1998  141.4040  163.4005 C.3     1  UNL1        0.1581
      8 C         137.9366  142.0258  164.7400 C.3     1  UNL1        0.2351
      9 O         137.7295  143.4973  164.5353 O.2     1  UNL1       -0.4478
     10 C         137.8647  143.7850  163.0694 C.2     1  UNL1        0.2770
     11 N         137.7324  145.1301  162.4191 N.pl3   1  UNL1       -0.3133
     12 N         138.1553  142.4913  162.3680 N.2     1  UNL1       -0.2202
     13 C         138.2136  140.4280  164.5395 C.3     1  UNL1        0.1141
     14 C         138.2827  140.2947  164.1488 C.3     1  UNL1        0.1501
     15 O         138.2100  140.4349  164.5594 O.3     1  UNL1       -0.3532
     16 C         138.2827  140.2947  164.1488 C.3     1  UNL1        0.1501
     17 C         138.4752  138.9743  164.2783 C.3     1  UNL1        0.1395
     18 C         138.2770  139.0727  165.7619 C.3     1  UNL1        0.0404
     19 C         138.4947  137.5940  165.8891 C.3     1  UNL1        0.0072
     20 C         138.6930  137.4957  164.4055 C.3     1  UNL1        0.0404
     21 O         138.7231  138.4966  162.8782 O.3     1  UNL1       -0.4826
     22 H         137.5395  145.9249  162.9670 H       1  UNL1        0.1466
     23 H         137.8386  145.2181  161.4443 H       1  UNL1        0.1466
     24 C         139.2280  144.2656  156.8739 C.ar    1  UNL1        0.0473
     25 C         138.0654  143.5390  156.2653 C.ar    1  UNL1        0.1202
     26 N         137.7193  142.3863  157.1606 N.ar    1  UNL1       -0.1637
     27 N         138.6680  142.4005  158.3223 N.ar    1  UNL1       -0.2284
     28 C         139.6004  143.5619  158.1451 C.ar    1  UNL1        0.1001
     29 C         139.9002  145.4822  156.3101 C.3     1  UNL1        0.1718
     30 C         139.2586  147.6458  155.0226 C.3     1  UNL1        0.1746
     31 O         139.1617  146.7864  156.2482 O.3     1  UNL1       -0.3462
@<TRIPOS>BOND
     1    30    31    1
     2    31    29    1
     3    29    24    1
     4    24    25   ar
     5    25    26   ar
     6    26    27   ar
     7    27     1    1
     8     1     2   ar
     9     2     3   ar
    10     3     4   ar
    11     4     5   ar
    12     5     6   ar
    13     5     7    1
    14     7     8    1
    15     8     9    1
    16     9    10    1
    17    10    11    1
    18    10    12    2
    19     7    13    1
    20    13    14    1
    21    14    15    1
    22    15    16    1
    23    13    17    1
    24    17    18    1
    25    18    19    1
    26    19    20    1
    27    17    21    1
    28    27    28   ar
    29    28    24   ar
    30     6     1   ar
    31    12     7    1
    32    16    13    1
    33    20    17    1
    34    21     4    1
    35    11    22    1
    36    11    23    1
@<TRIPOS>MOLECULE
*****
 31 36 0 0 0
SMALL
GASTEIGER

@<TRIPOS>ATOM
      1 C         139.2079  143.0066  162.0307 C.ar    1  UNL1        0.0828
      2 C         138.5210  143.5476  163.2495 C.ar    1  UNL1        0.0222
      3 C         138.1380  142.6233  164.3670 C.ar    1  UNL1        0.0382
      4 C         138.4419  141.1579  164.2658 C.ar    1  UNL1        0.1361
      5 C         139.1287  140.6168  163.0470 C.ar    1  UNL1        0.0372
      6 C         139.5118  141.5412  161.9294 C.ar    1  UNL1        0.0198
      7 C         139.4326  139.1514  162.9458 C.3     1  UNL1        0.1581
      8 C         139.7994  137.7171  162.7041 C.3     1  UNL1        0.2351
      9 O         140.4669  137.6289  161.3636 O.2     1  UNL1       -0.4478
     10 C         140.5126  139.0086  160.7768 C.2     1  UNL1        0.2770
     11 N         141.0951  139.3818  159.4460 N.pl3   1  UNL1       -0.3133
     12 N         139.8734  139.9496  161.7546 N.2     1  UNL1       -0.2202
     13 C         139.0497  138.2271  164.0633 C.3     1  UNL1        0.1141
     14 C         138.9649  138.6359  164.0916 C.3     1  UNL1        0.1501
     15 O         139.0540  138.2062  164.0619 O.3     1  UNL1       -0.3532
     16 C         138.9649  138.6359  164.0916 C.3     1  UNL1        0.1501
     17 C         138.3628  138.7681  165.2821 C.3     1  UNL1        0.1395
     18 C         138.4964  137.2954  165.5334 C.3     1  UNL1        0.0404
     19 C         137.8211  137.4609  166.8626 C.3     1  UNL1        0.0072
     20 C         137.6875  138.9336  166.6112 C.3     1  UNL1        0.0404
     21 O         138.0589  140.2335  165.3833 O.3     1  UNL1       -0.4826
     22 H         141.4947  138.6891  158.8719 H       1  UNL1        0.1466
     23 H         141.0778  140.3195  159.1466 H       1  UNL1        0.1466
     24 C         140.1510  144.7808  158.7099 C.ar    1  UNL1        0.0473
     25 C         140.2095  145.9259  159.6771 C.ar    1  UNL1        0.1202
     26 N         139.8634  145.4006  161.0388 N.ar    1  UNL1       -0.1637
     27 N         139.5909  143.9309  160.9132 N.ar    1  UNL1       -0.2284
     28 C         139.7686  143.5479  159.4739 C.ar    1  UNL1        0.1001
     29 C         140.4264  144.8556  157.2373 C.3     1  UNL1        0.1718
     30 C         139.2199  145.6155  155.0654 C.3     1  UNL1        0.1746
     31 O         139.3023  144.7061  156.2555 O.3     1  UNL1       -0.3462
@<TRIPOS>BOND
     1    30    31    1
     2    31    29    1
     3    29    24    1
     4    24    25   ar
     5    25    26   ar
     6    26    27   ar
     7    27     1    1
     8     1     2   ar
     9     2     3   ar
    10     3     4   ar
    11     4     5   ar
    12     5     6   ar
    13     5     7    1
    14     7     8    1
    15     8     9    1
    16     9    10    1
    17    10    11    1
    18    10    12    2
    19     7    13    1
    20    13    14    1
    21    14    15    1
    22    15    16    1
    23    13    17    1
    24    17    18    1
    25    18    19    1
    26    19    20    1
    27    17    21    1
    28    27    28   ar
    29    28    24   ar
    30     6     1   ar
    31    12     7    1
    32    16    13    1
    33    20    17    1
    34    21     4    1
    35    11    22    1
    36    11    23    1
@<TRIPOS>MOLECULE
*****
 31 36 0 0 0
SMALL
GASTEIGER

@<TRIPOS>ATOM
      1 C         139.3324  141.1047  159.7515 C.ar    1  UNL1        0.0828
      2 C         139.5537  139.6252  159.6412 C.ar    1  UNL1        0.0222
      3 C         139.3932  138.7508  160.8494 C.ar    1  UNL1        0.0382
      4 C         139.0115  139.3558  162.1678 C.ar    1  UNL1        0.1361
      5 C         138.7902  140.8353  162.2780 C.ar    1  UNL1        0.0372
      6 C         138.9507  141.7098  161.0699 C.ar    1  UNL1        0.0198
      7 C         138.4085  141.4403  163.5965 C.3     1  UNL1        0.1581
      8 C         138.0252  142.1841  164.8414 C.3     1  UNL1        0.2351
      9 O         137.9115  143.6394  164.4955 O.2     1  UNL1       -0.4478
     10 C         138.2245  143.7949  163.0368 C.2     1  UNL1        0.2770
     11 N         138.2294  145.0832  162.2686 N.pl3   1  UNL1       -0.3133
     12 N         138.5317  142.4358  162.4811 N.2     1  UNL1       -0.2202
     13 C         138.2481  140.5659  164.8046 C.3     1  UNL1        0.1141
     14 C         138.3546  140.3971  164.4368 C.3     1  UNL1        0.1501
     15 O         138.2426  140.5746  164.8234 O.3     1  UNL1       -0.3532
     16 C         138.3546  140.3971  164.4368 C.3     1  UNL1        0.1501
     17 C         138.4694  139.0865  164.6943 C.3     1  UNL1        0.1395
     18 C         138.1098  139.3191  166.1319 C.3     1  UNL1        0.0404
     19 C         138.2425  137.8498  166.4030 C.3     1  UNL1        0.0072
     20 C         138.6021  137.6172  164.9654 C.3     1  UNL1        0.0404
     21 O         138.8511  138.4814  163.3759 O.3     1  UNL1       -0.4826
     22 H         138.0132  145.9287  162.7241 H       1  UNL1        0.1466
     23 H         138.4489  145.0832  161.3089 H       1  UNL1        0.1466
     24 C         139.0075  143.4859  156.7036 C.ar    1  UNL1        0.0473
     25 C         140.4719  143.1634  156.6647 C.ar    1  UNL1        0.1202
     26 N         140.7718  142.2321  157.8017 N.ar    1  UNL1       -0.1637
     27 N         139.4928  141.9791  158.5433 N.ar    1  UNL1       -0.2284
     28 C         138.4025  142.7539  157.8647 C.ar    1  UNL1        0.1001
     29 C         138.2766  144.3829  155.7491 C.3     1  UNL1        0.1718
     30 C         136.3434  142.9245  154.8078 C.3     1  UNL1        0.1746
     31 O         136.8135  144.1730  155.4935 O.3     1  UNL1       -0.3462
@<TRIPOS>BOND
     1    30    31    1
     2    31    29    1
     3    29    24    1
     4    24    25   ar
     5    25    26   ar
     6    26    27   ar
     7    27     1    1
     8     1     2   ar
     9     2     3   ar
    10     3     4   ar
    11     4     5   ar
    12     5     6   ar
    13     5     7    1
    14     7     8    1
    15     8     9    1
    16     9    10    1
    17    10    11    1
    18    10    12    2
    19     7    13    1
    20    13    14    1
    21    14    15    1
    22    15    16    1
    23    13    17    1
    24    17    18    1
    25    18    19    1
    26    19    20    1
    27    17    21    1
    28    27    28   ar
    29    28    24   ar
    30     6     1   ar
    31    12     7    1
    32    16    13    1
    33    20    17    1
    34    21     4    1
    35    11    22    1
    36    11    23    1
@<TRIPOS>MOLECULE
*****
 31 36 0 0 0
SMALL
GASTEIGER

@<TRIPOS>ATOM
      1 C         142.0070  139.2340  165.6859 C.ar    1  UNL1        0.0828
      2 C         141.3895  138.0179  165.0616 C.ar    1  UNL1        0.0222
      3 C         141.5235  137.7822  163.5863 C.ar    1  UNL1        0.0382
      4 C         142.2750  138.7626  162.7353 C.ar    1  UNL1        0.1361
      5 C         142.8925  139.9786  163.3596 C.ar    1  UNL1        0.0372
      6 C         142.7585  140.2144  164.8350 C.ar    1  UNL1        0.0198
      7 C         143.6440  140.9590  162.5087 C.3     1  UNL1        0.1581
      8 C         144.4205  142.0217  161.7891 C.3     1  UNL1        0.2351
      9 O         144.8498  143.0455  162.7980 O.2     1  UNL1       -0.4478
     10 C         144.3386  142.6156  164.1410 C.2     1  UNL1        0.2770
     11 N         144.5377  143.3467  165.4355 N.pl3   1  UNL1       -0.3133
     12 N         143.5933  141.3261  163.9623 N.2     1  UNL1       -0.2202
     13 C         143.7780  140.7233  161.0334 C.3     1  UNL1        0.1141
     14 C         143.5683  140.4498  161.2708 C.3     1  UNL1        0.1501
     15 O         143.7887  140.7373  161.0213 O.3     1  UNL1       -0.3532
     16 C         143.5683  140.4498  161.2708 C.3     1  UNL1        0.1501
     17 C         143.1605  139.5072  160.4091 C.3     1  UNL1        0.1395
     18 C         143.8141  140.2372  159.2734 C.3     1  UNL1        0.0404
     19 C         143.3500  139.1739  158.3227 C.3     1  UNL1        0.0072
     20 C         142.6964  138.4439  159.4584 C.3     1  UNL1        0.0404
     21 O         142.4090  138.5269  161.2601 O.3     1  UNL1       -0.4826
     22 H         145.0444  144.1906  165.4513 H       1  UNL1        0.1466
     23 H         144.1616  142.9826  166.2693 H       1  UNL1        0.1466
     24 C         140.9372  139.9807  169.3414 C.ar    1  UNL1        0.0473
     25 C         142.3965  139.6841  169.5214 C.ar    1  UNL1        0.1202
     26 N         142.9749  139.3683  168.1739 N.ar    1  UNL1       -0.1637
     27 N         141.8730  139.4697  167.1612 N.ar    1  UNL1       -0.2284
     28 C         140.6137  139.8482  167.8828 C.ar    1  UNL1        0.1001
     29 C         139.9711  140.3458  170.4292 C.3     1  UNL1        0.1718
     30 C         139.9841  142.9424  170.3403 C.3     1  UNL1        0.1746
     31 O         140.0907  141.6689  171.1257 O.3     1  UNL1       -0.3462
@<TRIPOS>BOND
     1    30    31    1
     2    31    29    1
     3    29    24    1
     4    24    25   ar
     5    25    26   ar
     6    26    27   ar
     7    27     1    1
     8     1     2   ar
     9     2     3   ar
    10     3     4   ar
    11     4     5   ar
    12     5     6   ar
    13     5     7    1
    14     7     8    1
    15     8     9    1
    16     9    10    1
    17    10    11    1
    18    10    12    2
    19     7    13    1
    20    13    14    1
    21    14    15    1
    22    15    16    1
    23    13    17    1
    24    17    18    1
    25    18    19    1
    26    19    20    1
    27    17    21    1
    28    27    28   ar
    29    28    24   ar
    30     6     1   ar
    31    12     7    1
    32    16    13    1
    33    20    17    1
    34    21     4    1
    35    11    22    1
    36    11    23    1
@<TRIPOS>MOLECULE
*****
 31 36 0 0 0
SMALL
GASTEIGER

@<TRIPOS>ATOM
      1 C         142.9962  139.2371  166.1558 C.ar    1  UNL1        0.0828
      2 C         144.3226  139.5812  165.5455 C.ar    1  UNL1        0.0222
      3 C         144.5087  139.4973  164.0595 C.ar    1  UNL1        0.0382
      4 C         143.3686  139.0693  163.1837 C.ar    1  UNL1        0.1361
      5 C         142.0423  138.7253  163.7940 C.ar    1  UNL1        0.0372
      6 C         141.8561  138.8092  165.2801 C.ar    1  UNL1        0.0198
      7 C         140.9021  138.2973  162.9183 C.3     1  UNL1        0.1581
      8 C         139.6769  137.8560  162.1738 C.3     1  UNL1        0.2351
      9 O         138.5856  137.6201  163.1757 O.2     1  UNL1       -0.4478
     10 C         139.1364  137.9156  164.5392 C.2     1  UNL1        0.2770
     11 N         138.3872  137.8110  165.8344 N.pl3   1  UNL1       -0.3133
     12 N         140.5681  138.3342  164.3802 N.2     1  UNL1       -0.2202
     13 C         141.0883  138.2134  161.4323 C.3     1  UNL1        0.1141
     14 C         141.4064  138.3328  161.6766 C.3     1  UNL1        0.1501
     15 O         141.0720  138.2073  161.4198 O.3     1  UNL1       -0.3532
     16 C         141.4064  138.3328  161.6766 C.3     1  UNL1        0.1501
     17 C         142.4146  138.5574  160.8220 C.3     1  UNL1        0.1395
     18 C         141.5394  138.1829  159.6628 C.3     1  UNL1        0.0404
     19 C         142.6779  138.4388  158.7203 C.3     1  UNL1        0.0072
     20 C         143.5532  138.8133  159.8795 C.3     1  UNL1        0.0404
     21 O         143.5548  138.9854  161.6977 O.3     1  UNL1       -0.4826
     22 H         137.4449  137.5258  165.8363 H       1  UNL1        0.1466
     23 H         138.8377  138.0275  166.6826 H       1  UNL1        0.1466
     24 C         142.2117  140.1278  169.8512 C.ar    1  UNL1        0.0473
     25 C         142.8355  138.7725  170.0059 C.ar    1  UNL1        0.1202
     26 N         143.2053  138.2739  168.6404 N.ar    1  UNL1       -0.1637
     27 N         142.8101  139.3211  167.6418 N.ar    1  UNL1       -0.2284
     28 C         142.1960  140.4668  168.3901 C.ar    1  UNL1        0.1001
     29 C         141.6945  140.9923  170.9625 C.3     1  UNL1        0.1718
     30 C         139.8893  142.7735  170.3979 C.3     1  UNL1        0.1746
     31 O         141.3170  142.4183  170.6900 O.3     1  UNL1       -0.3462
@<TRIPOS>BOND
     1    30    31    1
     2    31    29    1
     3    29    24    1
     4    24    25   ar
     5    25    26   ar
     6    26    27   ar
     7    27     1    1
     8     1     2   ar
     9     2     3   ar
    10     3     4   ar
    11     4     5   ar
    12     5     6   ar
    13     5     7    1
    14     7     8    1
    15     8     9    1
    16     9    10    1
    17    10    11    1
    18    10    12    2
    19     7    13    1
    20    13    14    1
    21    14    15    1
    22    15    16    1
    23    13    17    1
    24    17    18    1
    25    18    19    1
    26    19    20    1
    27    17    21    1
    28    27    28   ar
    29    28    24   ar
    30     6     1   ar
    31    12     7    1
    32    16    13    1
    33    20    17    1
    34    21     4    1
    35    11    22    1
    36    11    23    1
@<TRIPOS>MOLECULE
*****
 31 36 0 0 0
SMALL
GASTEIGER

@<TRIPOS>ATOM
      1 C         141.9679  142.9470  164.9947 C.ar    1  UNL1        0.0828
      2 C         143.1326  143.7561  164.5057 C.ar    1  UNL1        0.0222
      3 C         143.1279  144.3112  163.1122 C.ar    1  UNL1        0.0382
      4 C         141.9587  144.0571  162.2076 C.ar    1  UNL1        0.1361
      5 C         140.7941  143.2480  162.6965 C.ar    1  UNL1        0.0372
      6 C         140.7987  142.6930  164.0900 C.ar    1  UNL1        0.0198
      7 C         139.6249  142.9940  161.7918 C.3     1  UNL1        0.1581
      8 C         138.3920  142.6590  161.0057 C.3     1  UNL1        0.2351
      9 O         137.4938  141.8358  161.8808 O.2     1  UNL1       -0.4478
     10 C         138.1714  141.6620  163.2076 C.2     1  UNL1        0.2770
     11 N         137.6276  140.9053  164.3829 N.pl3   1  UNL1       -0.3133
     12 N         139.4886  142.3778  163.1527 N.2     1  UNL1       -0.2202
     13 C         139.6203  143.5490  160.3983 C.3     1  UNL1        0.1141
     14 C         139.9465  143.6199  160.6507 C.3     1  UNL1        0.1501
     15 O         139.6036  143.5454  160.3854 O.3     1  UNL1       -0.3532
     16 C         139.9465  143.6199  160.6507 C.3     1  UNL1        0.1501
     17 C         140.7849  144.3581  159.9095 C.3     1  UNL1        0.1395
     18 C         139.8289  144.3165  158.7543 C.3     1  UNL1        0.0404
     19 C         140.7784  145.1430  157.9386 C.3     1  UNL1        0.0072
     20 C         141.7344  145.1845  159.0938 C.3     1  UNL1        0.0404
     21 O         141.9541  144.6121  160.8141 O.3     1  UNL1       -0.4826
     22 H         136.7484  140.4666  164.3219 H       1  UNL1        0.1466
     23 H         138.1499  140.8474  165.2155 H       1  UNL1        0.1466
     24 C         141.2535  141.3630  168.4653 C.ar    1  UNL1        0.0473
     25 C         142.7058  141.7128  168.5998 C.ar    1  UNL1        0.1202
     26 N         143.1502  142.3488  167.3161 N.ar    1  UNL1       -0.1637
     27 N         141.9725  142.3920  166.3882 N.ar    1  UNL1       -0.2284
     28 C         140.8003  141.7828  167.0984 C.ar    1  UNL1        0.1001
     29 C         140.4035  140.7084  169.5136 C.3     1  UNL1        0.1718
     30 C         139.7928  142.9755  170.6260 C.3     1  UNL1        0.1746
     31 O         139.9638  141.4881  170.7173 O.3     1  UNL1       -0.3462
@<TRIPOS>BOND
     1    30    31    1
     2    31    29    1
     3    29    24    1
     4    24    25   ar
     5    25    26   ar
     6    26    27   ar
     7    27     1    1
     8     1     2   ar
     9     2     3   ar
    10     3     4   ar
    11     4     5   ar
    12     5     6   ar
    13     5     7    1
    14     7     8    1
    15     8     9    1
    16     9    10    1
    17    10    11    1
    18    10    12    2
    19     7    13    1
    20    13    14    1
    21    14    15    1
    22    15    16    1
    23    13    17    1
    24    17    18    1
    25    18    19    1
    26    19    20    1
    27    17    21    1
    28    27    28   ar
    29    28    24   ar
    30     6     1   ar
    31    12     7    1
    32    16    13    1
    33    20    17    1
    34    21     4    1
    35    11    22    1
    36    11    23    1
