@<TRIPOS>MOLECULE
*****
 28 32 0 0 0
SMALL
GASTEIGER

@<TRIPOS>ATOM
      1 N         141.3441  138.3978  159.8197 N.3     1  UNL1       -0.2624
      2 C         139.8941  138.7778  159.7650 C.3     1  UNL1        0.0900
      3 C         139.0558  138.7184  161.0075 C.3     1  UNL1        0.0900
      4 N         139.6675  138.2789  162.3047 N.3     1  UNL1       -0.2648
      5 C         141.1176  137.8989  162.3593 C.3     1  UNL1        0.0900
      6 C         141.9559  137.9584  161.1169 C.3     1  UNL1        0.0900
      7 C         142.1824  138.4572  158.5772 C.3     1  UNL1        0.1604
      8 C         142.9146  135.1013  156.7696 C.ar    1  UNL1        0.2496
      9 N         141.9360  135.7324  155.8241 N.ar    1  UNL1       -0.1072
     10 N         141.5426  137.0663  156.3861 N.ar    1  UNL1       -0.1099
     11 C         142.2781  137.2597  157.6790 C.ar    1  UNL1        0.2426
     12 O         143.1260  136.0453  157.9160 O.2     1  UNL1       -0.4181
     13 C         144.8724  131.0821  156.2571 C.ar    1  UNL1        0.0000
     14 C         143.9962  131.6335  155.1715 C.ar    1  UNL1        0.0002
     15 C         143.3436  132.9732  155.3424 C.ar    1  UNL1        0.0047
     16 C         143.5672  133.7616  156.5988 C.ar    1  UNL1        0.0551
     17 C         144.4434  133.2102  157.6843 C.ar    1  UNL1        0.0047
     18 C         145.0960  131.8705  157.5134 C.ar    1  UNL1        0.0002
     19 C         138.8293  138.2195  163.5471 C.3     1  UNL1        0.1256
     20 C         139.1648  139.0915  164.7207 C.ar    1  UNL1        0.1044
     21 N         139.0027  138.7252  166.1662 N.ar    1  UNL1       -0.2413
     22 C         139.4590  139.8901  166.9936 C.ar    1  UNL1        0.0875
     23 C         139.5275  140.1020  168.4770 C.ar    1  UNL1        0.0196
     24 C         140.0401  141.4003  169.0262 C.ar    1  UNL1        0.0016
     25 C         140.4843  142.4866  168.0920 C.ar    1  UNL1        0.0006
     26 C         140.4158  142.2747  166.6087 C.ar    1  UNL1        0.0080
     27 C         139.9032  140.9764  166.0595 C.ar    1  UNL1        0.0482
     28 S         139.7213  140.4828  164.6547 S.2     1  UNL1       -0.0694
@<TRIPOS>BOND
     1    13    14   ar
     2    14    15   ar
     3    15    16   ar
     4    16     8    1
     5     8     9   ar
     6     9    10   ar
     7    10    11   ar
     8    11     7    1
     9     7     1    1
    10     1     2    1
    11     2     3    1
    12     3     4    1
    13     4    19    1
    14    19    20    1
    15    20    21   ar
    16    21    22   ar
    17    22    23   ar
    18    23    24   ar
    19    24    25   ar
    20    25    26   ar
    21    26    27   ar
    22    27    28   ar
    23     4     5    1
    24     5     6    1
    25    11    12   ar
    26    16    17   ar
    27    17    18   ar
    28    18    13   ar
    29    12     8   ar
    30     6     1    1
    31    28    20   ar
    32    27    22   ar
@<TRIPOS>MOLECULE
*****
 28 32 0 0 0
SMALL
GASTEIGER

@<TRIPOS>ATOM
      1 N         141.1484  138.3851  159.4741 N.3     1  UNL1       -0.2624
      2 C         141.7829  138.0178  160.7827 C.3     1  UNL1        0.0900
      3 C         140.9627  138.0121  162.0386 C.3     1  UNL1        0.0900
      4 N         139.5079  138.3736  161.9858 N.3     1  UNL1       -0.2648
      5 C         138.8733  138.7408  160.6772 C.3     1  UNL1        0.0900
      6 C         139.6935  138.7466  159.4214 C.3     1  UNL1        0.0900
      7 C         141.9686  138.3908  158.2182 C.3     1  UNL1        0.1604
      8 C         142.7914  134.9700  156.5792 C.ar    1  UNL1        0.2496
      9 N         141.7250  135.4839  155.6579 N.ar    1  UNL1       -0.1072
     10 N         141.2870  136.8278  156.1597 N.ar    1  UNL1       -0.1099
     11 C         142.0827  137.1446  157.3912 C.ar    1  UNL1        0.2426
     12 O         143.0124  135.9965  157.6504 O.2     1  UNL1       -0.4181
     13 C         144.9486  131.0393  156.1966 C.ar    1  UNL1        0.0000
     14 C         145.1202  131.8720  157.4326 C.ar    1  UNL1        0.0002
     15 C         144.4011  133.1821  157.5600 C.ar    1  UNL1        0.0047
     16 C         143.5104  133.6598  156.4517 C.ar    1  UNL1        0.0551
     17 C         143.3388  132.8273  155.2158 C.ar    1  UNL1        0.0047
     18 C         144.0579  131.5170  155.0883 C.ar    1  UNL1        0.0002
     19 C         138.6876  138.3679  163.2416 C.3     1  UNL1        0.1256
     20 C         139.0946  139.2198  164.4072 C.ar    1  UNL1        0.1044
     21 N         139.7456  140.5689  164.3285 N.ar    1  UNL1       -0.2413
     22 C         139.9755  141.0551  165.7288 C.ar    1  UNL1        0.0875
     23 C         140.5824  142.3171  166.2661 C.ar    1  UNL1        0.0196
     24 C         140.6804  142.5306  167.7476 C.ar    1  UNL1        0.0016
     25 C         140.1715  141.4819  168.6917 C.ar    1  UNL1        0.0006
     26 C         139.5646  140.2199  168.1544 C.ar    1  UNL1        0.0080
     27 C         139.4666  140.0064  166.6730 C.ar    1  UNL1        0.0482
     28 S         138.9222  138.8722  165.8562 S.2     1  UNL1       -0.0694
@<TRIPOS>BOND
     1    13    14   ar
     2    14    15   ar
     3    15    16   ar
     4    16     8    1
     5     8     9   ar
     6     9    10   ar
     7    10    11   ar
     8    11     7    1
     9     7     1    1
    10     1     2    1
    11     2     3    1
    12     3     4    1
    13     4    19    1
    14    19    20    1
    15    20    21   ar
    16    21    22   ar
    17    22    23   ar
    18    23    24   ar
    19    24    25   ar
    20    25    26   ar
    21    26    27   ar
    22    27    28   ar
    23     4     5    1
    24     5     6    1
    25    11    12   ar
    26    16    17   ar
    27    17    18   ar
    28    18    13   ar
    29    12     8   ar
    30     6     1    1
    31    28    20   ar
    32    27    22   ar
@<TRIPOS>MOLECULE
*****
 28 32 0 0 0
SMALL
GASTEIGER

@<TRIPOS>ATOM
      1 N         140.2503  138.9800  159.9692 N.3     1  UNL1       -0.2624
      2 C         139.7494  138.7400  158.5758 C.3     1  UNL1        0.0900
      3 C         140.6287  138.0584  157.5697 C.3     1  UNL1        0.0900
      4 N         142.0090  137.6169  157.9570 N.3     1  UNL1       -0.2648
      5 C         142.5098  137.8569  159.3504 C.3     1  UNL1        0.0900
      6 C         141.6305  138.5384  160.3565 C.3     1  UNL1        0.0900
      7 C         139.3709  139.6615  160.9754 C.3     1  UNL1        0.1604
      8 C         139.7866  139.0909  164.7920 C.ar    1  UNL1        0.2496
      9 N         138.9522  137.9042  164.4107 N.ar    1  UNL1       -0.1072
     10 N         138.6949  137.9734  162.9345 N.ar    1  UNL1       -0.1099
     11 C         139.3703  139.2030  162.4035 C.ar    1  UNL1        0.2426
     12 O         140.0450  139.8936  163.5515 O.2     1  UNL1       -0.4181
     13 C         141.2565  140.0708  168.9308 C.ar    1  UNL1        0.0000
     14 C         139.7862  140.0868  168.6336 C.ar    1  UNL1        0.0002
     15 C         139.2963  139.7601  167.2541 C.ar    1  UNL1        0.0047
     16 C         140.2765  139.4175  166.1716 C.ar    1  UNL1        0.0551
     17 C         141.7467  139.4016  166.4687 C.ar    1  UNL1        0.0047
     18 C         142.2367  139.7282  167.8483 C.ar    1  UNL1        0.0002
     19 C         142.8883  136.9354  156.9509 C.3     1  UNL1        0.1256
     20 C         142.6998  135.4768  156.6560 C.ar    1  UNL1        0.1044
     21 N         141.7231  134.8940  155.6779 N.ar    1  UNL1       -0.2413
     22 C         141.8745  133.4019  155.7048 C.ar    1  UNL1        0.0875
     23 C         141.1762  132.3085  154.9520 C.ar    1  UNL1        0.0196
     24 C         141.5480  130.8757  155.1939 C.ar    1  UNL1        0.0016
     25 C         142.6183  130.5362  156.1886 C.ar    1  UNL1        0.0006
     26 C         143.3167  131.6296  156.9413 C.ar    1  UNL1        0.0080
     27 C         142.9448  133.0625  156.6994 C.ar    1  UNL1        0.0482
     28 S         143.4548  134.3448  157.2873 S.2     1  UNL1       -0.0694
@<TRIPOS>BOND
     1    13    14   ar
     2    14    15   ar
     3    15    16   ar
     4    16     8    1
     5     8     9   ar
     6     9    10   ar
     7    10    11   ar
     8    11     7    1
     9     7     1    1
    10     1     2    1
    11     2     3    1
    12     3     4    1
    13     4    19    1
    14    19    20    1
    15    20    21   ar
    16    21    22   ar
    17    22    23   ar
    18    23    24   ar
    19    24    25   ar
    20    25    26   ar
    21    26    27   ar
    22    27    28   ar
    23     4     5    1
    24     5     6    1
    25    11    12   ar
    26    16    17   ar
    27    17    18   ar
    28    18    13   ar
    29    12     8   ar
    30     6     1    1
    31    28    20   ar
    32    27    22   ar
@<TRIPOS>MOLECULE
*****
 28 32 0 0 0
SMALL
GASTEIGER

@<TRIPOS>ATOM
      1 N         140.0430  139.0006  157.7333 N.3     1  UNL1       -0.2624
      2 C         138.9630  140.0322  157.5942 C.3     1  UNL1        0.0900
      3 C         138.0708  140.3456  158.7586 C.3     1  UNL1        0.0900
      4 N         138.2586  139.6273  160.0620 N.3     1  UNL1       -0.2648
      5 C         139.3387  138.5957  160.2010 C.3     1  UNL1        0.0900
      6 C         140.2308  138.2823  159.0367 C.3     1  UNL1        0.0900
      7 C         140.9352  138.6872  156.5689 C.3     1  UNL1        0.1604
      8 C         142.2325  135.0599  156.0943 C.ar    1  UNL1        0.2496
      9 N         141.0509  135.0684  155.1704 N.ar    1  UNL1       -0.1072
     10 N         140.4211  136.4281  155.2357 N.ar    1  UNL1       -0.1099
     11 C         141.2135  137.2601  156.2000 C.ar    1  UNL1        0.2426
     12 O         142.3330  136.4145  156.7306 O.2     1  UNL1       -0.4181
     13 C         144.9915  131.5815  156.8283 C.ar    1  UNL1        0.0000
     14 C         144.2131  131.6645  155.5486 C.ar    1  UNL1        0.0002
     15 C         143.2935  132.8239  155.3041 C.ar    1  UNL1        0.0047
     16 C         143.1522  133.9004  156.3390 C.ar    1  UNL1        0.0551
     17 C         143.9304  133.8175  157.6186 C.ar    1  UNL1        0.0047
     18 C         144.8501  132.6580  157.8632 C.ar    1  UNL1        0.0002
     19 C         137.3664  139.9407  161.2264 C.3     1  UNL1        0.1256
     20 C         137.8039  140.9359  162.2600 C.ar    1  UNL1        0.1044
     21 N         137.4165  142.3841  162.3092 N.ar    1  UNL1       -0.2413
     22 C         138.0788  143.0008  163.5054 C.ar    1  UNL1        0.0875
     23 C         138.0592  144.3962  164.0554 C.ar    1  UNL1        0.0196
     24 C         138.8365  144.7244  165.2956 C.ar    1  UNL1        0.0016
     25 C         139.6333  143.6573  165.9858 C.ar    1  UNL1        0.0006
     26 C         139.6528  142.2619  165.4358 C.ar    1  UNL1        0.0080
     27 C         138.8756  141.9337  164.1956 C.ar    1  UNL1        0.0482
     28 S         138.7057  140.6575  163.4259 S.2     1  UNL1       -0.0694
@<TRIPOS>BOND
     1    13    14   ar
     2    14    15   ar
     3    15    16   ar
     4    16     8    1
     5     8     9   ar
     6     9    10   ar
     7    10    11   ar
     8    11     7    1
     9     7     1    1
    10     1     2    1
    11     2     3    1
    12     3     4    1
    13     4    19    1
    14    19    20    1
    15    20    21   ar
    16    21    22   ar
    17    22    23   ar
    18    23    24   ar
    19    24    25   ar
    20    25    26   ar
    21    26    27   ar
    22    27    28   ar
    23     4     5    1
    24     5     6    1
    25    11    12   ar
    26    16    17   ar
    27    17    18   ar
    28    18    13   ar
    29    12     8   ar
    30     6     1    1
    31    28    20   ar
    32    27    22   ar
@<TRIPOS>MOLECULE
*****
 28 32 0 0 0
SMALL
GASTEIGER

@<TRIPOS>ATOM
      1 N         141.2239  138.5409  158.7629 N.3     1  UNL1       -0.2624
      2 C         142.5632  137.9448  158.4452 C.3     1  UNL1        0.0900
      3 C         142.7145  137.0233  157.2713 C.3     1  UNL1        0.0900
      4 N         141.5266  136.6979  156.4152 N.3     1  UNL1       -0.2648
      5 C         140.1872  137.2941  156.7329 C.3     1  UNL1        0.0900
      6 C         140.0360  138.2156  157.9068 C.3     1  UNL1        0.0900
      7 C         141.0726  139.4625  159.9368 C.3     1  UNL1        0.1604
      8 C         140.3395  138.6739  163.6658 C.ar    1  UNL1        0.2496
      9 N         140.9625  137.3863  163.2143 N.ar    1  UNL1       -0.1072
     10 N         141.3129  137.5249  161.7625 N.ar    1  UNL1       -0.1099
     11 C         140.9065  138.8983  161.3166 C.ar    1  UNL1        0.2426
     12 O         140.3049  139.6084  162.4930 O.2     1  UNL1       -0.4181
     13 C         138.8380  139.5753  167.8111 C.ar    1  UNL1        0.0000
     14 C         140.1925  140.0571  167.3827 C.ar    1  UNL1        0.0002
     15 C         140.6929  139.7566  166.0010 C.ar    1  UNL1        0.0047
     16 C         139.8390  138.9744  165.0476 C.ar    1  UNL1        0.0551
     17 C         138.4846  138.4926  165.4760 C.ar    1  UNL1        0.0047
     18 C         137.9841  138.7930  166.8577 C.ar    1  UNL1        0.0002
     19 C         141.6778  135.7764  155.2413 C.3     1  UNL1        0.1256
     20 C         142.2313  134.3962  155.4378 C.ar    1  UNL1        0.1044
     21 N         143.6598  134.0540  155.7417 N.ar    1  UNL1       -0.2413
     22 C         143.7648  132.5621  155.8566 C.ar    1  UNL1        0.0875
     23 C         144.9259  131.6568  156.1432 C.ar    1  UNL1        0.0196
     24 C         144.7234  130.1715  156.1968 C.ar    1  UNL1        0.0016
     25 C         143.3598  129.5916  155.9639 C.ar    1  UNL1        0.0006
     26 C         142.1987  130.4969  155.6772 C.ar    1  UNL1        0.0080
     27 C         142.4012  131.9822  155.6236 C.ar    1  UNL1        0.0482
     28 S         141.4535  133.1157  155.3648 S.2     1  UNL1       -0.0694
@<TRIPOS>BOND
     1    13    14   ar
     2    14    15   ar
     3    15    16   ar
     4    16     8    1
     5     8     9   ar
     6     9    10   ar
     7    10    11   ar
     8    11     7    1
     9     7     1    1
    10     1     2    1
    11     2     3    1
    12     3     4    1
    13     4    19    1
    14    19    20    1
    15    20    21   ar
    16    21    22   ar
    17    22    23   ar
    18    23    24   ar
    19    24    25   ar
    20    25    26   ar
    21    26    27   ar
    22    27    28   ar
    23     4     5    1
    24     5     6    1
    25    11    12   ar
    26    16    17   ar
    27    17    18   ar
    28    18    13   ar
    29    12     8   ar
    30     6     1    1
    31    28    20   ar
    32    27    22   ar
@<TRIPOS>MOLECULE
*****
 28 32 0 0 0
SMALL
GASTEIGER

@<TRIPOS>ATOM
      1 N         143.5585  139.8455  159.9291 N.3     1  UNL1       -0.2624
      2 C         143.9501  140.5523  158.6654 C.3     1  UNL1        0.0900
      3 C         143.7451  139.8843  157.3380 C.3     1  UNL1        0.0900
      4 N         143.1485  138.5095  157.2744 N.3     1  UNL1       -0.2648
      5 C         142.7569  137.8027  158.5382 C.3     1  UNL1        0.0900
      6 C         142.9619  138.4707  159.8655 C.3     1  UNL1        0.0900
      7 C         143.7635  140.5134  161.2565 C.3     1  UNL1        0.1604
      8 C         141.7556  139.1188  164.2712 C.ar    1  UNL1        0.2496
      9 N         143.1388  138.6386  164.5971 N.ar    1  UNL1       -0.1072
     10 N         144.0593  139.1026  163.5075 N.ar    1  UNL1       -0.1099
     11 C         143.2450  139.8695  162.5081 C.ar    1  UNL1        0.2426
     12 O         141.8213  139.8796  162.9801 O.2     1  UNL1       -0.4181
     13 C         138.0582  138.4029  166.7343 C.ar    1  UNL1        0.0000
     14 C         138.3769  137.4997  165.5798 C.ar    1  UNL1        0.0002
     15 C         139.6093  137.7384  164.7588 C.ar    1  UNL1        0.0047
     16 C         140.5231  138.8802  165.0923 C.ar    1  UNL1        0.0551
     17 C         140.2045  139.7833  166.2467 C.ar    1  UNL1        0.0047
     18 C         138.9720  139.5447  167.0678 C.ar    1  UNL1        0.0002
     19 C         142.9435  137.8416  155.9471 C.3     1  UNL1        0.1256
     20 C         142.8875  136.3451  155.8613 C.ar    1  UNL1        0.1044
     21 N         144.0505  135.4093  156.0088 N.ar    1  UNL1       -0.2413
     22 C         143.5404  134.0075  155.8516 C.ar    1  UNL1        0.0875
     23 C         144.2311  132.6768  155.8996 C.ar    1  UNL1        0.0196
     24 C         143.4434  131.4156  155.7029 C.ar    1  UNL1        0.0016
     25 C         141.9652  131.4849  155.4582 C.ar    1  UNL1        0.0006
     26 C         141.2745  132.8155  155.4102 C.ar    1  UNL1        0.0080
     27 C         142.0622  134.0768  155.6069 C.ar    1  UNL1        0.0482
     28 S         141.6586  135.5215  155.6129 S.2     1  UNL1       -0.0694
@<TRIPOS>BOND
     1    13    14   ar
     2    14    15   ar
     3    15    16   ar
     4    16     8    1
     5     8     9   ar
     6     9    10   ar
     7    10    11   ar
     8    11     7    1
     9     7     1    1
    10     1     2    1
    11     2     3    1
    12     3     4    1
    13     4    19    1
    14    19    20    1
    15    20    21   ar
    16    21    22   ar
    17    22    23   ar
    18    23    24   ar
    19    24    25   ar
    20    25    26   ar
    21    26    27   ar
    22    27    28   ar
    23     4     5    1
    24     5     6    1
    25    11    12   ar
    26    16    17   ar
    27    17    18   ar
    28    18    13   ar
    29    12     8   ar
    30     6     1    1
    31    28    20   ar
    32    27    22   ar
@<TRIPOS>MOLECULE
*****
 28 32 0 0 0
SMALL
GASTEIGER

@<TRIPOS>ATOM
      1 N         140.3221  138.1879  161.8184 N.3     1  UNL1       -0.2624
      2 C         139.3949  138.4029  160.6591 C.3     1  UNL1        0.0900
      3 C         139.9343  138.4149  159.2594 C.3     1  UNL1        0.0900
      4 N         141.4009  138.2119  159.0191 N.3     1  UNL1       -0.2648
      5 C         142.3282  137.9969  160.1785 C.3     1  UNL1        0.0900
      6 C         141.7888  137.9849  161.5781 C.3     1  UNL1        0.0900
      7 C         139.7828  138.1759  163.2180 C.3     1  UNL1        0.1604
      8 C         140.0922  140.7908  166.0696 C.ar    1  UNL1        0.2496
      9 N         140.4397  141.6250  164.8724 N.ar    1  UNL1       -0.1072
     10 N         140.3661  140.7470  163.6585 N.ar    1  UNL1       -0.1099
     11 C         139.9731  139.3701  164.1054 C.ar    1  UNL1        0.2426
     12 O         139.8038  139.3972  165.5956 O.2     1  UNL1       -0.4181
     13 C         139.9413  142.2183  170.3346 C.ar    1  UNL1        0.0000
     14 C         139.4553  140.8424  169.9864 C.ar    1  UNL1        0.0002
     15 C         139.5056  140.3667  168.5649 C.ar    1  UNL1        0.0047
     16 C         140.0419  141.2666  167.4913 C.ar    1  UNL1        0.0551
     17 C         140.5279  142.6423  167.8393 C.ar    1  UNL1        0.0047
     18 C         140.4776  143.1181  169.2610 C.ar    1  UNL1        0.0002
     19 C         141.9403  138.2239  157.6196 C.3     1  UNL1        0.1256
     20 C         142.1018  136.9365  156.8669 C.ar    1  UNL1        0.1044
     21 N         143.0441  135.8230  157.2166 N.ar    1  UNL1       -0.2413
     22 C         142.8741  134.7348  156.1983 C.ar    1  UNL1        0.0875
     23 C         143.5376  133.3995  156.0360 C.ar    1  UNL1        0.0196
     24 C         143.1538  132.5050  154.8947 C.ar    1  UNL1        0.0016
     25 C         142.1064  132.9460  153.9157 C.ar    1  UNL1        0.0006
     26 C         141.4428  134.2814  154.0779 C.ar    1  UNL1        0.0080
     27 C         141.8267  135.1758  155.2192 C.ar    1  UNL1        0.0482
     28 S         141.3494  136.5365  155.6325 S.2     1  UNL1       -0.0694
@<TRIPOS>BOND
     1    13    14   ar
     2    14    15   ar
     3    15    16   ar
     4    16     8    1
     5     8     9   ar
     6     9    10   ar
     7    10    11   ar
     8    11     7    1
     9     7     1    1
    10     1     2    1
    11     2     3    1
    12     3     4    1
    13     4    19    1
    14    19    20    1
    15    20    21   ar
    16    21    22   ar
    17    22    23   ar
    18    23    24   ar
    19    24    25   ar
    20    25    26   ar
    21    26    27   ar
    22    27    28   ar
    23     4     5    1
    24     5     6    1
    25    11    12   ar
    26    16    17   ar
    27    17    18   ar
    28    18    13   ar
    29    12     8   ar
    30     6     1    1
    31    28    20   ar
    32    27    22   ar
@<TRIPOS>MOLECULE
*****
 28 32 0 0 0
SMALL
GASTEIGER

@<TRIPOS>ATOM
      1 N         143.1019  138.8536  159.3627 N.3     1  UNL1       -0.2624
      2 C         143.6091  140.1659  159.8827 C.3     1  UNL1        0.0900
      3 C         144.0206  140.2948  161.3194 C.3     1  UNL1        0.0900
      4 N         143.9249  139.1114  162.2361 N.3     1  UNL1       -0.2648
      5 C         143.4176  137.7990  161.7160 C.3     1  UNL1        0.0900
      6 C         143.0061  137.6701  160.2794 C.3     1  UNL1        0.0900
      7 C         142.6903  138.7246  157.9260 C.3     1  UNL1        0.1604
      8 C         142.9667  135.0612  156.6739 C.ar    1  UNL1        0.2496
      9 N         141.6815  135.4911  156.0308 N.ar    1  UNL1       -0.1072
     10 N         141.4216  136.9158  156.4216 N.ar    1  UNL1       -0.1099
     11 C         142.5461  137.3664  157.3062 C.ar    1  UNL1        0.2426
     12 O         143.5010  136.2202  157.4621 O.2     1  UNL1       -0.4181
     13 C         144.8828  131.0063  156.3034 C.ar    1  UNL1        0.0000
     14 C         143.9890  131.5162  155.2119 C.ar    1  UNL1        0.0002
     15 C         143.3503  132.8677  155.3354 C.ar    1  UNL1        0.0047
     16 C         143.6054  133.7096  156.5504 C.ar    1  UNL1        0.0551
     17 C         144.4991  133.1998  157.6419 C.ar    1  UNL1        0.0047
     18 C         145.1378  131.8482  157.5184 C.ar    1  UNL1        0.0002
     19 C         144.3364  139.2403  163.6727 C.3     1  UNL1        0.1256
     20 C         143.2945  139.3999  164.7399 C.ar    1  UNL1        0.1044
     21 N         143.5546  139.5797  166.2062 N.ar    1  UNL1       -0.2413
     22 C         142.2304  139.6987  166.9007 C.ar    1  UNL1        0.0875
     23 C         141.8673  139.8901  168.3435 C.ar    1  UNL1        0.0196
     24 C         140.4257  139.9753  168.7491 C.ar    1  UNL1        0.0016
     25 C         139.3472  139.8690  167.7120 C.ar    1  UNL1        0.0006
     26 C         139.7103  139.6776  166.2693 C.ar    1  UNL1        0.0080
     27 C         141.1518  139.5925  165.8637 C.ar    1  UNL1        0.0482
     28 S         141.8095  139.4078  164.5282 S.2     1  UNL1       -0.0694
@<TRIPOS>BOND
     1    13    14   ar
     2    14    15   ar
     3    15    16   ar
     4    16     8    1
     5     8     9   ar
     6     9    10   ar
     7    10    11   ar
     8    11     7    1
     9     7     1    1
    10     1     2    1
    11     2     3    1
    12     3     4    1
    13     4    19    1
    14    19    20    1
    15    20    21   ar
    16    21    22   ar
    17    22    23   ar
    18    23    24   ar
    19    24    25   ar
    20    25    26   ar
    21    26    27   ar
    22    27    28   ar
    23     4     5    1
    24     5     6    1
    25    11    12   ar
    26    16    17   ar
    27    17    18   ar
    28    18    13   ar
    29    12     8   ar
    30     6     1    1
    31    28    20   ar
    32    27    22   ar
@<TRIPOS>MOLECULE
*****
 28 32 0 0 0
SMALL
GASTEIGER

@<TRIPOS>ATOM
      1 N         138.8009  140.1661  158.1105 N.3     1  UNL1       -0.2624
      2 C         138.2745  140.4035  159.4949 C.3     1  UNL1        0.0900
      3 C         138.8937  139.6966  160.6641 C.3     1  UNL1        0.0900
      4 N         140.0391  138.7523  160.4489 N.3     1  UNL1       -0.2648
      5 C         140.5654  138.5150  159.0644 C.3     1  UNL1        0.0900
      6 C         139.9463  139.2219  157.8952 C.3     1  UNL1        0.0900
      7 C         138.1817  140.8730  156.9412 C.3     1  UNL1        0.1604
      8 C         134.5576  139.9056  155.9440 C.ar    1  UNL1        0.2496
      9 N         135.3481  139.2049  154.8790 N.ar    1  UNL1       -0.1072
     10 N         136.8019  139.4820  155.1229 N.ar    1  UNL1       -0.1099
     11 C         136.9099  140.3540  156.3387 C.ar    1  UNL1        0.2426
     12 O         135.5229  140.6157  156.8461 O.2     1  UNL1       -0.4181
     13 C         130.0768  139.8814  156.3595 C.ar    1  UNL1        0.0000
     14 C         130.7713  141.0856  155.7957 C.ar    1  UNL1        0.0002
     15 C         132.2648  141.0935  155.6572 C.ar    1  UNL1        0.0047
     16 C         133.0640  139.8975  156.0825 C.ar    1  UNL1        0.0551
     17 C         132.3695  138.6934  156.6463 C.ar    1  UNL1        0.0047
     18 C         130.8760  138.6854  156.7848 C.ar    1  UNL1        0.0002
     19 C         140.6583  138.0455  161.6180 C.3     1  UNL1        0.1256
     20 C         140.2411  138.3989  163.0148 C.ar    1  UNL1        0.1044
     21 N         139.0367  137.8702  163.7358 N.ar    1  UNL1       -0.2413
     22 C         139.0063  138.4876  165.1025 C.ar    1  UNL1        0.0875
     23 C         138.0522  138.3385  166.2502 C.ar    1  UNL1        0.0196
     24 C         138.2839  139.0997  167.5218 C.ar    1  UNL1        0.0016
     25 C         139.4696  140.0100  167.6455 C.ar    1  UNL1        0.0006
     26 C         140.4237  140.1591  166.4978 C.ar    1  UNL1        0.0080
     27 C         140.1921  139.3979  165.2262 C.ar    1  UNL1        0.0482
     28 S         140.9552  139.3431  163.9360 S.2     1  UNL1       -0.0694
@<TRIPOS>BOND
     1    13    14   ar
     2    14    15   ar
     3    15    16   ar
     4    16     8    1
     5     8     9   ar
     6     9    10   ar
     7    10    11   ar
     8    11     7    1
     9     7     1    1
    10     1     2    1
    11     2     3    1
    12     3     4    1
    13     4    19    1
    14    19    20    1
    15    20    21   ar
    16    21    22   ar
    17    22    23   ar
    18    23    24   ar
    19    24    25   ar
    20    25    26   ar
    21    26    27   ar
    22    27    28   ar
    23     4     5    1
    24     5     6    1
    25    11    12   ar
    26    16    17   ar
    27    17    18   ar
    28    18    13   ar
    29    12     8   ar
    30     6     1    1
    31    28    20   ar
    32    27    22   ar
