@<TRIPOS>MOLECULE
*****
 20 21 0 0 0
SMALL
GASTEIGER

@<TRIPOS>ATOM
      1 C         142.3159  141.6511  168.1079 C.3     1  UNL1        0.1895
      2 C         142.8981  140.7920  167.0248 C.ar    1  UNL1        0.0172
      3 C         142.9813  139.3058  167.2097 C.ar    1  UNL1       -0.0008
      4 C         143.5634  138.4467  166.1267 C.ar    1  UNL1       -0.0002
      5 C         144.0624  139.0738  164.8588 C.ar    1  UNL1       -0.0000
      6 C         143.9793  140.5600  164.6739 C.ar    1  UNL1       -0.0002
      7 C         143.3971  141.4192  165.7569 C.ar    1  UNL1       -0.0008
      8 C         143.1982  142.1857  169.1969 C.3     1  UNL1        0.0653
      9 C         142.6034  142.9786  170.3227 C.3     1  UNL1        0.0727
     10 C         141.3810  140.9486  171.3882 C.3     1  UNL1        0.0859
     11 N         142.0663  142.2750  171.5337 N.3     1  UNL1       -0.2962
     12 H         142.8547  142.1314  172.1647 H       1  UNL1        0.1233
     13 O         140.8515  141.9757  168.1020 O.3     1  UNL1       -0.4750
     14 C         139.9112  141.1837  167.2425 C.ar    1  UNL1        0.1348
     15 C         139.3591  139.8803  167.7386 C.ar    1  UNL1        0.0366
     16 C         138.4189  139.0883  166.8791 C.ar    1  UNL1        0.0031
     17 C         138.0308  139.5998  165.5235 C.ar    1  UNL1       -0.0001
     18 C         138.5830  140.9032  165.0273 C.ar    1  UNL1       -0.0013
     19 C         139.5232  141.6952  165.8868 C.ar    1  UNL1        0.0121
     20 C         140.0753  142.9987  165.3907 C.3     1  UNL1        0.0342
@<TRIPOS>BOND
     1    10    11    1
     2    11     9    1
     3     9     8    1
     4     1     8    1
     5     1    13    1
     6    13    14    1
     7    14    15   ar
     8    15    16   ar
     9    16    17   ar
    10    17    18   ar
    11    18    19   ar
    12    19    20    1
    13     1     2    1
    14     2     3   ar
    15     3     4   ar
    16     4     5   ar
    17     5     6   ar
    18     6     7   ar
    19    19    14   ar
    20     7     2   ar
    21    11    12    1
@<TRIPOS>MOLECULE
*****
 20 21 0 0 0
SMALL
GASTEIGER

@<TRIPOS>ATOM
      1 C         140.8610  142.0401  168.0394 C.3     1  UNL1        0.1895
      2 C         139.9188  141.1952  167.2341 C.ar    1  UNL1        0.0172
      3 C         139.3509  139.9372  167.8214 C.ar    1  UNL1       -0.0008
      4 C         138.4087  139.0923  167.0161 C.ar    1  UNL1       -0.0002
      5 C         138.0344  139.5055  165.6236 C.ar    1  UNL1       -0.0000
      6 C         138.6023  140.7635  165.0363 C.ar    1  UNL1       -0.0002
      7 C         139.5445  141.6084  165.8416 C.ar    1  UNL1       -0.0008
      8 C         140.3285  143.1555  168.8892 C.3     1  UNL1        0.0653
      9 C         140.0075  142.9103  170.3338 C.3     1  UNL1        0.0727
     10 C         141.5448  141.0832  171.3580 C.3     1  UNL1        0.0859
     11 N         140.1852  141.5408  170.9196 N.3     1  UNL1       -0.2962
     12 H         139.5791  141.4899  171.7384 H       1  UNL1        0.1233
     13 O         142.3357  141.7695  167.9948 O.3     1  UNL1       -0.4750
     14 C         142.8947  140.8270  166.9705 C.ar    1  UNL1        0.1348
     15 C         142.9542  139.3561  167.2581 C.ar    1  UNL1        0.0366
     16 C         143.5132  138.4136  166.2338 C.ar    1  UNL1        0.0031
     17 C         144.0125  138.9421  164.9218 C.ar    1  UNL1       -0.0001
     18 C         143.9530  140.4130  164.6341 C.ar    1  UNL1       -0.0013
     19 C         143.3941  141.3554  165.6585 C.ar    1  UNL1        0.0121
     20 C         143.3345  142.8265  165.3708 C.3     1  UNL1        0.0342
@<TRIPOS>BOND
     1    10    11    1
     2    11     9    1
     3     9     8    1
     4     1     8    1
     5     1    13    1
     6    13    14    1
     7    14    15   ar
     8    15    16   ar
     9    16    17   ar
    10    17    18   ar
    11    18    19   ar
    12    19    20    1
    13     1     2    1
    14     2     3   ar
    15     3     4   ar
    16     4     5   ar
    17     5     6   ar
    18     6     7   ar
    19    19    14   ar
    20     7     2   ar
    21    11    12    1
@<TRIPOS>MOLECULE
*****
 20 21 0 0 0
SMALL
GASTEIGER

@<TRIPOS>ATOM
      1 C         140.4139  139.4092  165.2155 C.3     1  UNL1        0.1895
      2 C         140.6752  139.6531  166.6723 C.ar    1  UNL1        0.0172
      3 C         139.5358  139.9648  167.5967 C.ar    1  UNL1       -0.0008
      4 C         139.7971  140.2087  169.0535 C.ar    1  UNL1       -0.0002
      5 C         141.1977  140.1409  169.5858 C.ar    1  UNL1       -0.0000
      6 C         142.3372  139.8292  168.6614 C.ar    1  UNL1       -0.0002
      7 C         142.0759  139.5853  167.2046 C.ar    1  UNL1       -0.0008
      8 C         140.0403  138.0365  164.7400 C.3     1  UNL1        0.0653
      9 C         141.1006  137.1032  164.2354 C.3     1  UNL1        0.0727
     10 C         140.7933  137.9578  161.8013 C.3     1  UNL1        0.0859
     11 N         141.2986  136.9206  162.7598 N.3     1  UNL1       -0.2962
     12 H         142.3037  136.8415  162.6051 H       1  UNL1        0.1233
     13 O         140.5262  140.5381  164.2341 O.3     1  UNL1       -0.4750
     14 C         139.7495  141.8025  164.4534 C.ar    1  UNL1        0.1348
     15 C         138.2898  141.8548  164.1121 C.ar    1  UNL1        0.0366
     16 C         137.5132  143.1192  164.3314 C.ar    1  UNL1        0.0031
     17 C         138.1962  144.3313  164.8919 C.ar    1  UNL1       -0.0001
     18 C         139.6559  144.2790  165.2332 C.ar    1  UNL1       -0.0013
     19 C         140.4326  143.0146  165.0139 C.ar    1  UNL1        0.0121
     20 C         141.8923  142.9623  165.3552 C.3     1  UNL1        0.0342
@<TRIPOS>BOND
     1    10    11    1
     2    11     9    1
     3     9     8    1
     4     1     8    1
     5     1    13    1
     6    13    14    1
     7    14    15   ar
     8    15    16   ar
     9    16    17   ar
    10    17    18   ar
    11    18    19   ar
    12    19    20    1
    13     1     2    1
    14     2     3   ar
    15     3     4   ar
    16     4     5   ar
    17     5     6   ar
    18     6     7   ar
    19    19    14   ar
    20     7     2   ar
    21    11    12    1
@<TRIPOS>MOLECULE
*****
 20 21 0 0 0
SMALL
GASTEIGER

@<TRIPOS>ATOM
      1 C         140.4338  139.3934  165.3001 C.3     1  UNL1        0.1895
      2 C         140.6945  139.6301  166.7582 C.ar    1  UNL1        0.0172
      3 C         142.0939  139.5507  167.2924 C.ar    1  UNL1       -0.0008
      4 C         142.3547  139.7874  168.7505 C.ar    1  UNL1       -0.0002
      5 C         141.2160  140.1035  169.6743 C.ar    1  UNL1       -0.0000
      6 C         139.8166  140.1828  169.1401 C.ar    1  UNL1       -0.0002
      7 C         139.5559  139.9461  167.6821 C.ar    1  UNL1       -0.0008
      8 C         140.0493  138.0255  164.8194 C.3     1  UNL1        0.0653
      9 C         141.0900  137.1147  164.2386 C.3     1  UNL1        0.0727
     10 C         140.4635  137.9204  161.8494 C.3     1  UNL1        0.0859
     11 N         141.2766  137.0406  162.7520 N.3     1  UNL1       -0.2962
     12 H         142.2566  137.2548  162.5673 H       1  UNL1        0.1233
     13 O         140.5575  140.5245  164.3228 O.3     1  UNL1       -0.4750
     14 C         139.6942  141.7422  164.4717 C.ar    1  UNL1        0.1348
     15 C         140.2007  142.9324  165.2312 C.ar    1  UNL1        0.0366
     16 C         139.3374  144.1499  165.3801 C.ar    1  UNL1        0.0031
     17 C         137.9676  144.1773  164.7695 C.ar    1  UNL1       -0.0001
     18 C         137.4611  142.9871  164.0100 C.ar    1  UNL1       -0.0013
     19 C         138.3244  141.7695  163.8611 C.ar    1  UNL1        0.0121
     20 C         137.8179  140.5793  163.1016 C.3     1  UNL1        0.0342
@<TRIPOS>BOND
     1    10    11    1
     2    11     9    1
     3     9     8    1
     4     1     8    1
     5     1    13    1
     6    13    14    1
     7    14    15   ar
     8    15    16   ar
     9    16    17   ar
    10    17    18   ar
    11    18    19   ar
    12    19    20    1
    13     1     2    1
    14     2     3   ar
    15     3     4   ar
    16     4     5   ar
    17     5     6   ar
    18     6     7   ar
    19    19    14   ar
    20     7     2   ar
    21    11    12    1
@<TRIPOS>MOLECULE
*****
 20 21 0 0 0
SMALL
GASTEIGER

@<TRIPOS>ATOM
      1 C         138.6776  142.6196  164.8731 C.3     1  UNL1        0.1895
      2 C         140.0876  142.4741  165.3640 C.ar    1  UNL1        0.0172
      3 C         141.2351  142.6736  164.4188 C.ar    1  UNL1       -0.0008
      4 C         142.6450  142.5281  164.9097 C.ar    1  UNL1       -0.0002
      5 C         142.9074  142.1831  166.3456 C.ar    1  UNL1       -0.0000
      6 C         141.7598  141.9835  167.2908 C.ar    1  UNL1       -0.0002
      7 C         140.3499  142.1290  166.7999 C.ar    1  UNL1       -0.0008
      8 C         138.1118  143.9838  164.6109 C.3     1  UNL1        0.0653
      9 C         137.7248  144.3800  163.2169 C.3     1  UNL1        0.0727
     10 C         138.9026  143.2481  161.1966 C.3     1  UNL1        0.0859
     11 N         137.7250  143.3576  162.1192 N.3     1  UNL1       -0.2962
     12 H         137.6145  142.4469  162.5650 H       1  UNL1        0.1233
     13 O         137.8336  141.4009  164.6444 O.3     1  UNL1       -0.4750
     14 C         138.4743  140.1149  164.2134 C.ar    1  UNL1        0.1348
     15 C         138.9819  139.9632  162.8101 C.ar    1  UNL1        0.0366
     16 C         139.6226  138.6773  162.3792 C.ar    1  UNL1        0.0031
     17 C         139.7558  137.5429  163.3516 C.ar    1  UNL1       -0.0001
     18 C         139.2483  137.6946  164.7549 C.ar    1  UNL1       -0.0013
     19 C         138.6075  138.9805  165.1858 C.ar    1  UNL1        0.0121
     20 C         138.0999  139.1322  166.5892 C.3     1  UNL1        0.0342
@<TRIPOS>BOND
     1    10    11    1
     2    11     9    1
     3     9     8    1
     4     1     8    1
     5     1    13    1
     6    13    14    1
     7    14    15   ar
     8    15    16   ar
     9    16    17   ar
    10    17    18   ar
    11    18    19   ar
    12    19    20    1
    13     1     2    1
    14     2     3   ar
    15     3     4   ar
    16     4     5   ar
    17     5     6   ar
    18     6     7   ar
    19    19    14   ar
    20     7     2   ar
    21    11    12    1
@<TRIPOS>MOLECULE
*****
 20 21 0 0 0
SMALL
GASTEIGER

@<TRIPOS>ATOM
      1 C         141.6301  140.3089  167.6400 C.3     1  UNL1        0.1895
      2 C         140.6086  139.5771  166.8208 C.ar    1  UNL1        0.0172
      3 C         139.1650  139.5995  167.2276 C.ar    1  UNL1       -0.0008
      4 C         138.1435  138.8678  166.4084 C.ar    1  UNL1       -0.0002
      5 C         138.5656  138.1136  165.1825 C.ar    1  UNL1       -0.0000
      6 C         140.0093  138.0912  164.7757 C.ar    1  UNL1       -0.0002
      7 C         141.0307  138.8229  165.5948 C.ar    1  UNL1       -0.0008
      8 C         142.6181  139.5410  168.4673 C.3     1  UNL1        0.0653
      9 C         142.2586  139.1130  169.8592 C.3     1  UNL1        0.0727
     10 C         140.7529  140.7874  171.1552 C.3     1  UNL1        0.0859
     11 N         140.9240  139.4821  170.4363 N.3     1  UNL1       -0.2962
     12 H         140.2588  139.4824  169.6631 H       1  UNL1        0.1233
     13 O         141.6636  141.8085  167.6319 O.3     1  UNL1       -0.4750
     14 C         142.1931  142.5404  166.4344 C.ar    1  UNL1        0.1348
     15 C         143.6727  142.7001  166.2468 C.ar    1  UNL1        0.0366
     16 C         144.2021  143.4320  165.0493 C.ar    1  UNL1        0.0031
     17 C         143.2519  144.0041  164.0394 C.ar    1  UNL1       -0.0001
     18 C         141.7723  143.8444  164.2270 C.ar    1  UNL1       -0.0013
     19 C         141.2429  143.1125  165.4245 C.ar    1  UNL1        0.0121
     20 C         139.7633  142.9527  165.6122 C.3     1  UNL1        0.0342
@<TRIPOS>BOND
     1    10    11    1
     2    11     9    1
     3     9     8    1
     4     1     8    1
     5     1    13    1
     6    13    14    1
     7    14    15   ar
     8    15    16   ar
     9    16    17   ar
    10    17    18   ar
    11    18    19   ar
    12    19    20    1
    13     1     2    1
    14     2     3   ar
    15     3     4   ar
    16     4     5   ar
    17     5     6   ar
    18     6     7   ar
    19    19    14   ar
    20     7     2   ar
    21    11    12    1
@<TRIPOS>MOLECULE
*****
 20 21 0 0 0
SMALL
GASTEIGER

@<TRIPOS>ATOM
      1 C         141.4412  140.3489  165.2729 C.3     1  UNL1        0.1895
      2 C         140.2497  139.5460  165.7041 C.ar    1  UNL1        0.0172
      3 C         139.8723  138.3025  164.9549 C.ar    1  UNL1       -0.0008
      4 C         138.6809  137.4997  165.3860 C.ar    1  UNL1       -0.0002
      5 C         137.8669  137.9403  166.5663 C.ar    1  UNL1       -0.0000
      6 C         138.2443  139.1838  167.3155 C.ar    1  UNL1       -0.0002
      7 C         139.4357  139.9866  166.8844 C.ar    1  UNL1       -0.0008
      8 C         142.7918  140.0600  165.8578 C.3     1  UNL1        0.0653
      9 C         142.9883  138.8584  166.7339 C.3     1  UNL1        0.0727
     10 C         142.5571  140.2645  168.8757 C.3     1  UNL1        0.0859
     11 N         143.0871  139.0230  168.2216 N.3     1  UNL1       -0.2962
     12 H         142.5907  138.2356  168.6386 H       1  UNL1        0.1233
     13 O         141.2819  141.4407  164.2567 O.3     1  UNL1       -0.4750
     14 C         140.1141  142.3785  164.3402 C.ar    1  UNL1        0.1348
     15 C         140.1540  143.5437  165.2840 C.ar    1  UNL1        0.0366
     16 C         138.9862  144.4814  165.3675 C.ar    1  UNL1        0.0031
     17 C         137.7786  144.2539  164.5072 C.ar    1  UNL1       -0.0001
     18 C         137.7388  143.0887  163.5635 C.ar    1  UNL1       -0.0013
     19 C         138.9066  142.1510  163.4800 C.ar    1  UNL1        0.0121
     20 C         138.8668  140.9858  162.5362 C.3     1  UNL1        0.0342
@<TRIPOS>BOND
     1    10    11    1
     2    11     9    1
     3     9     8    1
     4     1     8    1
     5     1    13    1
     6    13    14    1
     7    14    15   ar
     8    15    16   ar
     9    16    17   ar
    10    17    18   ar
    11    18    19   ar
    12    19    20    1
    13     1     2    1
    14     2     3   ar
    15     3     4   ar
    16     4     5   ar
    17     5     6   ar
    18     6     7   ar
    19    19    14   ar
    20     7     2   ar
    21    11    12    1
@<TRIPOS>MOLECULE
*****
 20 21 0 0 0
SMALL
GASTEIGER

@<TRIPOS>ATOM
      1 C         141.7796  142.5050  166.4389 C.3     1  UNL1        0.1895
      2 C         140.9580  141.9917  167.5842 C.ar    1  UNL1        0.0172
      3 C         140.7442  142.8482  168.7969 C.ar    1  UNL1       -0.0008
      4 C         139.9227  142.3350  169.9422 C.ar    1  UNL1       -0.0002
      5 C         139.3150  140.9653  169.8747 C.ar    1  UNL1       -0.0000
      6 C         139.5288  140.1088  168.6620 C.ar    1  UNL1       -0.0002
      7 C         140.3504  140.6220  167.5168 C.ar    1  UNL1       -0.0008
      8 C         143.2398  142.1722  166.3549 C.3     1  UNL1        0.0653
      9 C         144.0342  142.5812  165.1501 C.3     1  UNL1        0.0727
     10 C         143.9118  144.4660  163.3661 C.3     1  UNL1        0.0859
     11 N         144.1461  144.0312  164.7824 N.3     1  UNL1       -0.2962
     12 H         143.4727  144.5343  165.3601 H       1  UNL1        0.1233
     13 O         141.1410  143.3511  165.3776 O.3     1  UNL1       -0.4750
     14 C         139.9168  142.8603  164.6630 C.ar    1  UNL1        0.1348
     15 C         139.9721  141.5908  163.8659 C.ar    1  UNL1        0.0366
     16 C         138.7480  141.1001  163.1513 C.ar    1  UNL1        0.0031
     17 C         137.4687  141.8788  163.2338 C.ar    1  UNL1       -0.0001
     18 C         137.4134  143.1482  164.0309 C.ar    1  UNL1       -0.0013
     19 C         138.6375  143.6389  164.7455 C.ar    1  UNL1        0.0121
     20 C         138.5822  144.9085  165.5426 C.3     1  UNL1        0.0342
@<TRIPOS>BOND
     1    10    11    1
     2    11     9    1
     3     9     8    1
     4     1     8    1
     5     1    13    1
     6    13    14    1
     7    14    15   ar
     8    15    16   ar
     9    16    17   ar
    10    17    18   ar
    11    18    19   ar
    12    19    20    1
    13     1     2    1
    14     2     3   ar
    15     3     4   ar
    16     4     5   ar
    17     5     6   ar
    18     6     7   ar
    19    19    14   ar
    20     7     2   ar
    21    11    12    1
@<TRIPOS>MOLECULE
*****
 20 21 0 0 0
SMALL
GASTEIGER

@<TRIPOS>ATOM
      1 C         141.7107  140.5123  166.4904 C.3     1  UNL1        0.1895
      2 C         141.0302  141.0484  167.7149 C.ar    1  UNL1        0.0172
      3 C         139.9697  140.2378  168.3992 C.ar    1  UNL1       -0.0008
      4 C         139.2892  140.7738  169.6237 C.ar    1  UNL1       -0.0002
      5 C         139.6691  142.1206  170.1639 C.ar    1  UNL1       -0.0000
      6 C         140.7295  142.9313  169.4796 C.ar    1  UNL1       -0.0002
      7 C         141.4101  142.3952  168.2551 C.ar    1  UNL1       -0.0008
      8 C         142.6852  139.3782  166.6097 C.3     1  UNL1        0.0653
      9 C         142.7415  138.3225  165.5456 C.3     1  UNL1        0.0727
     10 C         141.1233  137.1367  163.8947 C.3     1  UNL1        0.0859
     11 N         141.8021  138.3840  164.3777 N.3     1  UNL1       -0.2962
     12 H         141.0645  139.0428  164.6275 H       1  UNL1        0.1233
     13 O         141.4167  141.1102  165.1465 O.3     1  UNL1       -0.4750
     14 C         140.2874  142.0850  164.9902 C.ar    1  UNL1        0.1348
     15 C         140.5578  143.5597  165.0355 C.ar    1  UNL1        0.0366
     16 C         139.4285  144.5345  164.8792 C.ar    1  UNL1        0.0031
     17 C         138.0287  144.0345  164.6775 C.ar    1  UNL1       -0.0001
     18 C         137.7583  142.5599  164.6322 C.ar    1  UNL1       -0.0013
     19 C         138.8876  141.5851  164.7885 C.ar    1  UNL1        0.0121
     20 C         138.6171  140.1103  164.7432 C.3     1  UNL1        0.0342
@<TRIPOS>BOND
     1    10    11    1
     2    11     9    1
     3     9     8    1
     4     1     8    1
     5     1    13    1
     6    13    14    1
     7    14    15   ar
     8    15    16   ar
     9    16    17   ar
    10    17    18   ar
    11    18    19   ar
    12    19    20    1
    13     1     2    1
    14     2     3   ar
    15     3     4   ar
    16     4     5   ar
    17     5     6   ar
    18     6     7   ar
    19    19    14   ar
    20     7     2   ar
    21    11    12    1
