@<TRIPOS>MOLECULE
*****
 29 32 0 0 0
SMALL
GASTEIGER

@<TRIPOS>ATOM
      1 C         138.8928  139.4026  167.6079 C.ar    1  UNL1        0.1321
      2 N         138.2283  139.6095  168.9366 N.ar    1  UNL1       -0.2290
      3 C         138.8824  140.4703  169.9763 C.ar    1  UNL1        0.1053
      4 C         140.2011  141.1242  169.6874 C.ar    1  UNL1        0.0783
      5 C         140.8656  140.9173  168.3586 C.ar    1  UNL1        0.0380
      6 S         142.1567  141.4288  167.7916 S.2     1  UNL1       -0.0866
      7 C         142.3004  140.8841  166.4014 C.ar    1  UNL1        0.0296
      8 C         141.0982  140.0360  166.1092 C.ar    1  UNL1        0.0098
      9 C         140.2114  140.0565  167.3188 C.ar    1  UNL1        0.0383
     10 C         143.4454  141.1422  165.4674 C.ar    1  UNL1        0.0060
     11 C         144.0845  140.0022  164.7313 C.ar    1  UNL1        0.0005
     12 C         145.2295  140.2604  163.7973 C.ar    1  UNL1        0.0000
     13 C         145.7354  141.6585  163.5993 C.ar    1  UNL1        0.0000
     14 C         145.0963  142.7986  164.3354 C.ar    1  UNL1        0.0000
     15 C         143.9513  142.5404  165.2694 C.ar    1  UNL1        0.0005
     16 C         140.8552  141.9851  170.7272 C.2     1  UNL1        0.2448
     17 N         140.7057  143.4764  170.6685 N.am    1  UNL1       -0.3253
     18 O         141.6587  141.3544  171.8256 O.2     1  UNL1       -0.2703
     19 H         140.1784  143.8903  169.9475 H       1  UNL1        0.1453
     20 H         141.1351  144.0414  171.3510 H       1  UNL1        0.1453
     21 C         137.4030  137.3675  166.9840 C.3     1  UNL1        0.1135
     22 N         138.2386  138.5418  166.5681 N.pl3   1  UNL1       -0.2917
     23 C         138.4200  138.8553  165.1124 C.3     1  UNL1        0.0899
     24 C         139.0163  137.8309  164.1933 C.3     1  UNL1        0.0226
     25 C         139.1978  138.1443  162.7377 C.3     1  UNL1        0.0188
     26 C         138.7828  139.4822  162.2012 C.3     1  UNL1        0.0687
     27 N         138.1865  140.5067  163.1204 N.3     1  UNL1       -0.2961
     28 C         138.0050  140.1932  164.5761 C.3     1  UNL1        0.0886
     29 H         137.2630  140.7322  162.7504 H       1  UNL1        0.1233
@<TRIPOS>BOND
     1    21    22    1
     2    22     1    1
     3     1     2   ar
     4     2     3   ar
     5     3     4   ar
     6     4    16    1
     7    16    17   am
     8    16    18    2
     9     4     5   ar
    10     5     6   ar
    11     6     7   ar
    12     7    10    1
    13    10    11   ar
    14    11    12   ar
    15    12    13   ar
    16    13    14   ar
    17    14    15   ar
    18     7     8   ar
    19     8     9   ar
    20    23    22    1
    21    23    24    1
    22    24    25    1
    23    25    26    1
    24    26    27    1
    25    27    28    1
    26     9     1   ar
    27    28    23    1
    28     9     5   ar
    29    15    10   ar
    30    17    19    1
    31    17    20    1
    32    27    29    1
@<TRIPOS>MOLECULE
*****
 29 32 0 0 0
SMALL
GASTEIGER

@<TRIPOS>ATOM
      1 C         142.7175  139.2395  167.4164 C.ar    1  UNL1        0.1321
      2 N         142.7960  138.8024  168.8492 N.ar    1  UNL1       -0.2290
      3 C         142.1557  139.6317  169.9225 C.ar    1  UNL1        0.1053
      4 C         141.4368  140.8983  169.5631 C.ar    1  UNL1        0.0783
      5 C         141.3584  141.3355  168.1304 C.ar    1  UNL1        0.0380
      6 S         140.7228  142.5273  167.4781 S.2     1  UNL1       -0.0866
      7 C         140.9703  142.4345  166.0016 C.ar    1  UNL1        0.0296
      8 C         141.7589  141.1853  165.7414 C.ar    1  UNL1        0.0098
      9 C         141.9988  140.5061  167.0571 C.ar    1  UNL1        0.0383
     10 C         140.5100  143.4181  164.9669 C.ar    1  UNL1        0.0060
     11 C         139.0442  143.6043  164.7086 C.ar    1  UNL1        0.0005
     12 C         138.5840  144.5880  163.6739 C.ar    1  UNL1        0.0000
     13 C         139.5895  145.3855  162.8975 C.ar    1  UNL1        0.0000
     14 C         141.0553  145.1994  163.1558 C.ar    1  UNL1        0.0000
     15 C         141.5155  144.2157  164.1905 C.ar    1  UNL1        0.0005
     16 C         140.7965  141.7277  170.6366 C.2     1  UNL1        0.2448
     17 N         139.3124  141.9449  170.6314 N.am    1  UNL1       -0.3253
     18 O         141.6404  142.3397  171.7151 O.2     1  UNL1       -0.2703
     19 H         138.7585  141.5432  169.9235 H       1  UNL1        0.1453
     20 H         138.8921  142.4893  171.3359 H       1  UNL1        0.1453
     21 C         144.6754  137.7402  166.5986 C.3     1  UNL1        0.1135
     22 N         143.3579  138.4101  166.3431 N.pl3   1  UNL1       -0.2917
     23 C         142.6807  138.2507  165.0141 C.3     1  UNL1        0.0899
     24 C         141.3530  137.5582  164.9272 C.3     1  UNL1        0.0226
     25 C         140.6758  137.3987  163.5983 C.3     1  UNL1        0.0188
     26 C         141.3264  137.9318  162.3563 C.3     1  UNL1        0.0687
     27 N         142.6541  138.6244  162.4432 N.3     1  UNL1       -0.2961
     28 C         143.3313  138.7838  163.7722 C.3     1  UNL1        0.0886
     29 H         142.5221  139.5626  162.0655 H       1  UNL1        0.1233
@<TRIPOS>BOND
     1    21    22    1
     2    22     1    1
     3     1     2   ar
     4     2     3   ar
     5     3     4   ar
     6     4    16    1
     7    16    17   am
     8    16    18    2
     9     4     5   ar
    10     5     6   ar
    11     6     7   ar
    12     7    10    1
    13    10    11   ar
    14    11    12   ar
    15    12    13   ar
    16    13    14   ar
    17    14    15   ar
    18     7     8   ar
    19     8     9   ar
    20    23    22    1
    21    23    24    1
    22    24    25    1
    23    25    26    1
    24    26    27    1
    25    27    28    1
    26     9     1   ar
    27    28    23    1
    28     9     5   ar
    29    15    10   ar
    30    17    19    1
    31    17    20    1
    32    27    29    1
@<TRIPOS>MOLECULE
*****
 29 32 0 0 0
SMALL
GASTEIGER

@<TRIPOS>ATOM
      1 C         139.0332  141.9392  163.0024 C.ar    1  UNL1        0.1321
      2 N         138.6017  140.8018  162.1248 N.ar    1  UNL1       -0.2290
      3 C         138.8142  139.3863  162.5730 C.ar    1  UNL1        0.1053
      4 C         139.4583  139.1080  163.8989 C.ar    1  UNL1        0.0783
      5 C         139.8898  140.2454  164.7764 C.ar    1  UNL1        0.0380
      6 S         140.5461  140.2797  166.1248 S.2     1  UNL1       -0.0866
      7 C         140.7392  141.7165  166.5099 C.ar    1  UNL1        0.0296
      8 C         140.2022  142.5702  165.3995 C.ar    1  UNL1        0.0098
      9 C         139.6773  141.6610  164.3282 C.ar    1  UNL1        0.0383
     10 C         141.3602  142.2126  167.7820 C.ar    1  UNL1        0.0060
     11 C         140.5513  143.0356  168.7403 C.ar    1  UNL1        0.0005
     12 C         141.1724  143.5317  170.0124 C.ar    1  UNL1        0.0000
     13 C         142.6023  143.2048  170.3262 C.ar    1  UNL1        0.0000
     14 C         143.4112  142.3818  169.3679 C.ar    1  UNL1        0.0000
     15 C         142.7901  141.8857  168.0958 C.ar    1  UNL1        0.0005
     16 C         139.6708  137.6924  164.3471 C.2     1  UNL1        0.2448
     17 N         140.8476  136.9135  163.8389 N.am    1  UNL1       -0.3253
     18 O         138.7065  137.0558  165.3035 O.2     1  UNL1       -0.2703
     19 H         141.4805  137.3313  163.2111 H       1  UNL1        0.1453
     20 H         140.9871  135.9843  164.1330 H       1  UNL1        0.1453
     21 C         137.7586  144.1945  163.1998 C.3     1  UNL1        0.1135
     22 N         138.8206  143.3548  162.5541 N.pl3   1  UNL1       -0.2917
     23 C         139.6702  143.9307  161.4601 C.3     1  UNL1        0.0899
     24 C         139.4655  143.4902  160.0410 C.3     1  UNL1        0.0226
     25 C         140.3150  144.0661  158.9470 C.3     1  UNL1        0.0188
     26 C         141.3691  145.0824  159.2722 C.3     1  UNL1        0.0687
     27 N         141.5739  145.5229  160.6914 N.3     1  UNL1       -0.2961
     28 C         140.7243  144.9470  161.7854 C.3     1  UNL1        0.0886
     29 H         141.4325  146.5329  160.7095 H       1  UNL1        0.1233
@<TRIPOS>BOND
     1    21    22    1
     2    22     1    1
     3     1     2   ar
     4     2     3   ar
     5     3     4   ar
     6     4    16    1
     7    16    17   am
     8    16    18    2
     9     4     5   ar
    10     5     6   ar
    11     6     7   ar
    12     7    10    1
    13    10    11   ar
    14    11    12   ar
    15    12    13   ar
    16    13    14   ar
    17    14    15   ar
    18     7     8   ar
    19     8     9   ar
    20    23    22    1
    21    23    24    1
    22    24    25    1
    23    25    26    1
    24    26    27    1
    25    27    28    1
    26     9     1   ar
    27    28    23    1
    28     9     5   ar
    29    15    10   ar
    30    17    19    1
    31    17    20    1
    32    27    29    1
@<TRIPOS>MOLECULE
*****
 29 32 0 0 0
SMALL
GASTEIGER

@<TRIPOS>ATOM
      1 C         141.9998  141.6875  162.6745 C.ar    1  UNL1        0.1321
      2 N         142.0069  140.6690  161.5733 N.ar    1  UNL1       -0.2290
      3 C         141.4589  139.2947  161.8193 C.ar    1  UNL1        0.1053
      4 C         140.9037  138.9386  163.1666 C.ar    1  UNL1        0.0783
      5 C         140.8967  139.9571  164.2678 C.ar    1  UNL1        0.0380
      6 S         140.4186  139.8961  165.6883 S.2     1  UNL1       -0.0866
      7 C         140.6711  141.2329  166.3201 C.ar    1  UNL1        0.0296
      8 C         141.3053  142.1201  165.2901 C.ar    1  UNL1        0.0098
      9 C         141.4447  141.3316  164.0217 C.ar    1  UNL1        0.0383
     10 C         140.3465  141.6155  167.7337 C.ar    1  UNL1        0.0060
     11 C         140.6712  142.9927  168.2314 C.ar    1  UNL1        0.0005
     12 C         140.3466  143.3752  169.6451 C.ar    1  UNL1        0.0000
     13 C         139.6973  142.3804  170.5610 C.ar    1  UNL1        0.0000
     14 C         139.3726  141.0032  170.0633 C.ar    1  UNL1        0.0000
     15 C         139.6973  140.6207  168.6496 C.ar    1  UNL1        0.0005
     16 C         140.3557  137.5641  163.4126 C.2     1  UNL1        0.2448
     17 N         141.2589  136.4745  163.9094 N.am    1  UNL1       -0.3253
     18 O         138.9045  137.2794  163.1618 O.2     1  UNL1       -0.2703
     19 H         142.2113  136.6614  164.0741 H       1  UNL1        0.1453
     20 H         140.8992  135.5724  164.0709 H       1  UNL1        0.1453
     21 C         144.0214  143.3147  162.5501 C.3     1  UNL1        0.1135
     22 N         142.5479  143.0620  162.4284 N.pl3   1  UNL1       -0.2917
     23 C         141.6224  144.1837  162.0606 C.3     1  UNL1        0.0899
     24 C         141.1773  144.3531  160.6383 C.3     1  UNL1        0.0226
     25 C         140.2518  145.4748  160.2705 C.3     1  UNL1        0.0188
     26 C         139.7714  146.4271  161.3252 C.3     1  UNL1        0.0687
     27 N         140.2165  146.2578  162.7476 N.3     1  UNL1       -0.2961
     28 C         141.1420  145.1360  163.1153 C.3     1  UNL1        0.0886
     29 H         139.3726  146.1390  163.3080 H       1  UNL1        0.1233
@<TRIPOS>BOND
     1    21    22    1
     2    22     1    1
     3     1     2   ar
     4     2     3   ar
     5     3     4   ar
     6     4    16    1
     7    16    17   am
     8    16    18    2
     9     4     5   ar
    10     5     6   ar
    11     6     7   ar
    12     7    10    1
    13    10    11   ar
    14    11    12   ar
    15    12    13   ar
    16    13    14   ar
    17    14    15   ar
    18     7     8   ar
    19     8     9   ar
    20    23    22    1
    21    23    24    1
    22    24    25    1
    23    25    26    1
    24    26    27    1
    25    27    28    1
    26     9     1   ar
    27    28    23    1
    28     9     5   ar
    29    15    10   ar
    30    17    19    1
    31    17    20    1
    32    27    29    1
@<TRIPOS>MOLECULE
*****
 29 32 0 0 0
SMALL
GASTEIGER

@<TRIPOS>ATOM
      1 C         139.6924  143.7786  160.5164 C.ar    1  UNL1        0.1321
      2 N         139.5200  144.0120  159.0447 N.ar    1  UNL1       -0.2290
      3 C         138.9389  142.9350  158.1776 C.ar    1  UNL1        0.1053
      4 C         138.5300  141.6244  158.7820 C.ar    1  UNL1        0.0783
      5 C         138.7024  141.3910  160.2536 C.ar    1  UNL1        0.0380
      6 S         138.3929  140.2103  161.1256 S.2     1  UNL1       -0.0866
      7 C         138.7829  140.5578  162.5317 C.ar    1  UNL1        0.0296
      8 C         139.3333  141.9532  162.5288 C.ar    1  UNL1        0.0098
      9 C         139.2836  142.4681  161.1209 C.ar    1  UNL1        0.0383
     10 C         138.6463  139.6664  163.7304 C.ar    1  UNL1        0.0060
     11 C         139.0075  138.2140  163.6300 C.ar    1  UNL1        0.0005
     12 C         138.8709  137.3227  164.8287 C.ar    1  UNL1        0.0000
     13 C         138.3733  137.8837  166.1278 C.ar    1  UNL1        0.0000
     14 C         138.0121  139.3361  166.2282 C.ar    1  UNL1        0.0000
     15 C         138.1487  140.2274  165.0295 C.ar    1  UNL1        0.0005
     16 C         137.9488  140.5473  157.9147 C.2     1  UNL1        0.2448
     17 N         138.8112  139.4110  157.4508 N.am    1  UNL1       -0.3253
     18 O         136.5053  140.6066  157.5113 O.2     1  UNL1       -0.2703
     19 H         139.7586  139.3721  157.7156 H       1  UNL1        0.1453
     20 H         138.4297  138.7041  156.8816 H       1  UNL1        0.1453
     21 C         139.4995  146.1159  161.6344 C.3     1  UNL1        0.1135
     22 N         140.2736  144.8557  161.3836 N.pl3   1  UNL1       -0.2917
     23 C         141.6288  144.6727  162.0000 C.3     1  UNL1        0.0899
     24 C         141.9165  145.2362  163.3600 C.3     1  UNL1        0.0226
     25 C         143.2717  145.0532  163.9764 C.3     1  UNL1        0.0188
     26 C         144.3392  144.3066  163.2327 C.3     1  UNL1        0.0687
     27 N         144.0515  143.7430  161.8727 N.3     1  UNL1       -0.2961
     28 C         142.6963  143.9261  161.2563 C.3     1  UNL1        0.0886
     29 H         144.2158  142.7380  161.9297 H       1  UNL1        0.1233
@<TRIPOS>BOND
     1    21    22    1
     2    22     1    1
     3     1     2   ar
     4     2     3   ar
     5     3     4   ar
     6     4    16    1
     7    16    17   am
     8    16    18    2
     9     4     5   ar
    10     5     6   ar
    11     6     7   ar
    12     7    10    1
    13    10    11   ar
    14    11    12   ar
    15    12    13   ar
    16    13    14   ar
    17    14    15   ar
    18     7     8   ar
    19     8     9   ar
    20    23    22    1
    21    23    24    1
    22    24    25    1
    23    25    26    1
    24    26    27    1
    25    27    28    1
    26     9     1   ar
    27    28    23    1
    28     9     5   ar
    29    15    10   ar
    30    17    19    1
    31    17    20    1
    32    27    29    1
@<TRIPOS>MOLECULE
*****
 29 32 0 0 0
SMALL
GASTEIGER

@<TRIPOS>ATOM
      1 C         139.0245  142.0602  163.9249 C.ar    1  UNL1        0.1321
      2 N         138.1207  141.0269  163.3204 N.ar    1  UNL1       -0.2290
      3 C         137.8087  139.7692  164.0757 C.ar    1  UNL1        0.1053
      4 C         138.4005  139.5446  165.4357 C.ar    1  UNL1        0.0783
      5 C         139.3043  140.5779  166.0402 C.ar    1  UNL1        0.0380
      6 S         140.0291  140.6332  167.3522 S.2     1  UNL1       -0.0866
      7 C         140.7891  141.9252  167.4078 C.ar    1  UNL1        0.0296
      8 C         140.5340  142.6684  166.1300 C.ar    1  UNL1        0.0098
      9 C         139.6163  141.8357  165.2848 C.ar    1  UNL1        0.0383
     10 C         141.6526  142.3921  168.5419 C.ar    1  UNL1        0.0060
     11 C         143.0829  141.9484  168.6276 C.ar    1  UNL1        0.0005
     12 C         143.9464  142.4154  169.7618 C.ar    1  UNL1        0.0000
     13 C         143.3797  143.3260  170.8103 C.ar    1  UNL1        0.0000
     14 C         141.9494  143.7698  170.7247 C.ar    1  UNL1        0.0000
     15 C         141.0859  143.3028  169.5905 C.ar    1  UNL1        0.0005
     16 C         138.0884  138.2867  166.1910 C.2     1  UNL1        0.2448
     17 N         137.3452  138.3580  167.4919 N.am    1  UNL1       -0.3253
     18 O         138.5196  136.9578  165.6453 O.2     1  UNL1       -0.2703
     19 H         137.0621  139.2302  167.8500 H       1  UNL1        0.1453
     20 H         137.1403  137.5324  167.9877 H       1  UNL1        0.1453
     21 C         138.2227  144.2017  162.6915 C.3     1  UNL1        0.1135
     22 N         139.3365  143.3180  163.1695 N.pl3   1  UNL1       -0.2917
     23 C         140.7625  143.6922  162.8921 C.3     1  UNL1        0.0899
     24 C         141.6712  142.7212  162.1985 C.3     1  UNL1        0.0226
     25 C         143.0971  143.0954  161.9211 C.3     1  UNL1        0.0188
     26 C         143.6141  144.4405  162.3374 C.3     1  UNL1        0.0687
     27 N         142.7053  145.4114  163.0311 N.3     1  UNL1       -0.2961
     28 C         141.2794  145.0373  163.3085 C.3     1  UNL1        0.0886
     29 H         142.6823  146.2546  162.4575 H       1  UNL1        0.1233
@<TRIPOS>BOND
     1    21    22    1
     2    22     1    1
     3     1     2   ar
     4     2     3   ar
     5     3     4   ar
     6     4    16    1
     7    16    17   am
     8    16    18    2
     9     4     5   ar
    10     5     6   ar
    11     6     7   ar
    12     7    10    1
    13    10    11   ar
    14    11    12   ar
    15    12    13   ar
    16    13    14   ar
    17    14    15   ar
    18     7     8   ar
    19     8     9   ar
    20    23    22    1
    21    23    24    1
    22    24    25    1
    23    25    26    1
    24    26    27    1
    25    27    28    1
    26     9     1   ar
    27    28    23    1
    28     9     5   ar
    29    15    10   ar
    30    17    19    1
    31    17    20    1
    32    27    29    1
@<TRIPOS>MOLECULE
*****
 29 32 0 0 0
SMALL
GASTEIGER

@<TRIPOS>ATOM
      1 C         139.6725  139.9639  163.6393 C.ar    1  UNL1        0.1321
      2 N         138.7201  140.3653  162.5522 N.ar    1  UNL1       -0.2290
      3 C         138.0823  141.7226  162.5774 C.ar    1  UNL1        0.1053
      4 C         138.3968  142.6787  163.6897 C.ar    1  UNL1        0.0783
      5 C         139.3492  142.2772  164.7768 C.ar    1  UNL1        0.0380
      6 S         139.8477  143.0012  165.9922 S.2     1  UNL1       -0.0866
      7 C         140.7937  142.0913  166.7182 C.ar    1  UNL1        0.0296
      8 C         140.8798  140.8049  165.9515 C.ar    1  UNL1        0.0098
      9 C         139.9870  140.9198  164.7516 C.ar    1  UNL1        0.0383
     10 C         141.5252  142.4114  167.9880 C.ar    1  UNL1        0.0060
     11 C         140.8159  143.1193  169.1041 C.ar    1  UNL1        0.0005
     12 C         141.5474  143.4395  170.3739 C.ar    1  UNL1        0.0000
     13 C         142.9883  143.0517  170.5276 C.ar    1  UNL1        0.0000
     14 C         143.6976  142.3438  169.4115 C.ar    1  UNL1        0.0000
     15 C         142.9660  142.0237  168.1417 C.ar    1  UNL1        0.0005
     16 C         137.7589  144.0361  163.7148 C.2     1  UNL1        0.2448
     17 N         137.7078  144.8640  162.4650 N.am    1  UNL1       -0.3253
     18 O         137.1722  144.5655  164.9897 O.2     1  UNL1       -0.2703
     19 H         138.0929  144.5164  161.6282 H       1  UNL1        0.1453
     20 H         137.2891  145.7548  162.4815 H       1  UNL1        0.1453
     21 C         139.6753  137.4656  164.3525 C.3     1  UNL1        0.1135
     22 N         140.3103  138.6065  163.6141 N.pl3   1  UNL1       -0.2917
     23 C         141.5832  138.3899  162.8506 C.3     1  UNL1        0.0899
     24 C         142.8726  138.9571  163.3658 C.3     1  UNL1        0.0226
     25 C         144.1455  138.7406  162.6023 C.3     1  UNL1        0.0188
     26 C         144.1289  137.9569  161.3235 C.3     1  UNL1        0.0687
     27 N         142.8394  137.3896  160.8081 N.3     1  UNL1       -0.2961
     28 C         141.5665  137.6062  161.5717 C.3     1  UNL1        0.0886
     29 H         142.9703  136.3808  160.7340 H       1  UNL1        0.1233
@<TRIPOS>BOND
     1    21    22    1
     2    22     1    1
     3     1     2   ar
     4     2     3   ar
     5     3     4   ar
     6     4    16    1
     7    16    17   am
     8    16    18    2
     9     4     5   ar
    10     5     6   ar
    11     6     7   ar
    12     7    10    1
    13    10    11   ar
    14    11    12   ar
    15    12    13   ar
    16    13    14   ar
    17    14    15   ar
    18     7     8   ar
    19     8     9   ar
    20    23    22    1
    21    23    24    1
    22    24    25    1
    23    25    26    1
    24    26    27    1
    25    27    28    1
    26     9     1   ar
    27    28    23    1
    28     9     5   ar
    29    15    10   ar
    30    17    19    1
    31    17    20    1
    32    27    29    1
@<TRIPOS>MOLECULE
*****
 29 32 0 0 0
SMALL
GASTEIGER

@<TRIPOS>ATOM
      1 C         139.0136  140.3110  162.4455 C.ar    1  UNL1        0.1321
      2 N         138.4339  141.4068  161.6010 N.ar    1  UNL1       -0.2290
      3 C         138.3065  142.7942  162.1567 C.ar    1  UNL1        0.1053
      4 C         138.7588  143.0859  163.5568 C.ar    1  UNL1        0.0783
      5 C         139.3385  141.9901  164.4013 C.ar    1  UNL1        0.0380
      6 S         139.8658  141.9773  165.8055 S.2     1  UNL1       -0.0866
      7 C         140.3192  140.5819  166.1176 C.ar    1  UNL1        0.0296
      8 C         140.0720  139.7323  164.9064 C.ar    1  UNL1        0.0098
      9 C         139.4659  140.6026  163.8456 C.ar    1  UNL1        0.0383
     10 C         140.9150  140.1176  167.4135 C.ar    1  UNL1        0.0060
     11 C         142.2909  139.5205  167.4351 C.ar    1  UNL1        0.0005
     12 C         142.8867  139.0562  168.7311 C.ar    1  UNL1        0.0000
     13 C         142.1067  139.1890  170.0054 C.ar    1  UNL1        0.0000
     14 C         140.7308  139.7861  169.9838 C.ar    1  UNL1        0.0000
     15 C         140.1350  140.2504  168.6879 C.ar    1  UNL1        0.0005
     16 C         138.6313  144.4734  164.1124 C.2     1  UNL1        0.2448
     17 N         139.5367  145.5639  163.6216 N.am    1  UNL1       -0.3253
     18 O         137.5985  144.7702  165.1589 O.2     1  UNL1       -0.2703
     19 H         140.2146  145.3690  162.9348 H       1  UNL1        0.1453
     20 H         139.4531  146.4745  163.9863 H       1  UNL1        0.1453
     21 C         137.9885  137.9683  161.9860 C.3     1  UNL1        0.1135
     22 N         139.1410  138.9235  161.8898 N.pl3   1  UNL1       -0.2917
     23 C         140.4210  138.4913  161.2379 C.3     1  UNL1        0.0899
     24 C         140.6458  138.7552  159.7786 C.3     1  UNL1        0.0226
     25 C         141.9257  138.3230  159.1266 C.3     1  UNL1        0.0188
     26 C         142.9808  137.6269  159.9341 C.3     1  UNL1        0.0687
     27 N         142.7560  137.3629  161.3935 N.3     1  UNL1       -0.2961
     28 C         141.4760  137.7951  162.0454 C.3     1  UNL1        0.0886
     29 H         143.5134  137.8253  161.8964 H       1  UNL1        0.1233
@<TRIPOS>BOND
     1    21    22    1
     2    22     1    1
     3     1     2   ar
     4     2     3   ar
     5     3     4   ar
     6     4    16    1
     7    16    17   am
     8    16    18    2
     9     4     5   ar
    10     5     6   ar
    11     6     7   ar
    12     7    10    1
    13    10    11   ar
    14    11    12   ar
    15    12    13   ar
    16    13    14   ar
    17    14    15   ar
    18     7     8   ar
    19     8     9   ar
    20    23    22    1
    21    23    24    1
    22    24    25    1
    23    25    26    1
    24    26    27    1
    25    27    28    1
    26     9     1   ar
    27    28    23    1
    28     9     5   ar
    29    15    10   ar
    30    17    19    1
    31    17    20    1
    32    27    29    1
@<TRIPOS>MOLECULE
*****
 29 32 0 0 0
SMALL
GASTEIGER

@<TRIPOS>ATOM
      1 C         142.3944  142.1458  162.4400 C.ar    1  UNL1        0.1321
      2 N         141.7549  143.0917  161.4672 N.ar    1  UNL1       -0.2290
      3 C         140.5332  143.8652  161.8659 C.ar    1  UNL1        0.1053
      4 C         139.9509  143.6929  163.2375 C.ar    1  UNL1        0.0783
      5 C         140.5903  142.7469  164.2103 C.ar    1  UNL1        0.0380
      6 S         140.2441  142.3720  165.6208 S.2     1  UNL1       -0.0866
      7 C         141.2519  141.3667  166.0937 C.ar    1  UNL1        0.0296
      8 C         142.2209  141.1204  164.9756 C.ar    1  UNL1        0.0098
      9 C         141.8121  141.9734  163.8115 C.ar    1  UNL1        0.0383
     10 C         141.2849  140.7210  167.4473 C.ar    1  UNL1        0.0060
     11 C         140.1036  140.8401  168.3640 C.ar    1  UNL1        0.0005
     12 C         140.1367  140.1944  169.7176 C.ar    1  UNL1        0.0000
     13 C         141.3509  139.4296  170.1543 C.ar    1  UNL1        0.0000
     14 C         142.5322  139.3105  169.2376 C.ar    1  UNL1        0.0000
     15 C         142.4991  139.9563  167.8840 C.ar    1  UNL1        0.0005
     16 C         138.7291  144.4664  163.6362 C.2     1  UNL1        0.2448
     17 N         137.5652  144.5674  162.6954 N.am    1  UNL1       -0.3253
     18 O         138.6713  145.1390  164.9757 O.2     1  UNL1       -0.2703
     19 H         137.6032  144.1259  161.8162 H       1  UNL1        0.1453
     20 H         136.7633  145.0751  162.9570 H       1  UNL1        0.1453
     21 C         144.9806  141.9320  162.3149 C.3     1  UNL1        0.1135
     22 N         143.6161  141.3723  162.0412 N.pl3   1  UNL1       -0.2917
     23 C         143.4734  140.0391  161.3687 C.3     1  UNL1        0.0899
     24 C         143.1011  139.9671  159.9175 C.3     1  UNL1        0.0226
     25 C         142.9584  138.6339  159.2450 C.3     1  UNL1        0.0188
     26 C         143.1879  137.3727  160.0238 C.3     1  UNL1        0.0687
     27 N         143.5602  137.4446  161.4751 N.3     1  UNL1       -0.2961
     28 C         143.7029  138.7779  162.1476 C.3     1  UNL1        0.0886
     29 H         144.4566  136.9679  161.5732 H       1  UNL1        0.1233
@<TRIPOS>BOND
     1    21    22    1
     2    22     1    1
     3     1     2   ar
     4     2     3   ar
     5     3     4   ar
     6     4    16    1
     7    16    17   am
     8    16    18    2
     9     4     5   ar
    10     5     6   ar
    11     6     7   ar
    12     7    10    1
    13    10    11   ar
    14    11    12   ar
    15    12    13   ar
    16    13    14   ar
    17    14    15   ar
    18     7     8   ar
    19     8     9   ar
    20    23    22    1
    21    23    24    1
    22    24    25    1
    23    25    26    1
    24    26    27    1
    25    27    28    1
    26     9     1   ar
    27    28    23    1
    28     9     5   ar
    29    15    10   ar
    30    17    19    1
    31    17    20    1
    32    27    29    1
