@<TRIPOS>MOLECULE
*****
 28 30 0 0 0
SMALL
GASTEIGER

@<TRIPOS>ATOM
      1 O         142.4585  143.0411  164.2746 O.2     1  UNL1       -0.2732
      2 C         141.2909  143.9792  164.3551 C.2     1  UNL1        0.2430
      3 N         140.1988  143.7335  165.3536 N.am    1  UNL1       -0.2956
      4 H         139.4325  144.3493  165.4064 H       1  UNL1        0.1501
      5 C         141.2154  145.1632  163.4372 C.3     1  UNL1        0.1759
      6 N         141.7321  145.0576  162.0329 N.am    1  UNL1       -0.2931
      7 C         140.7710  144.9724  160.8845 C.2     1  UNL1        0.2462
      8 O         139.2931  144.9926  161.1403 O.2     1  UNL1       -0.2701
      9 H         142.7021  145.0443  161.8650 H       1  UNL1        0.1502
     10 C         141.2877  144.8668  159.4802 C.ar    1  UNL1        0.0535
     11 C         140.7651  145.7875  158.4176 C.ar    1  UNL1        0.0068
     12 C         141.2818  145.6819  157.0134 C.ar    1  UNL1        0.0298
     13 C         142.3212  144.6557  156.6719 C.ar    1  UNL1        0.1401
     14 F         142.8379  144.5502  155.2676 F       1  UNL1       -0.2042
     15 C         142.8438  143.7351  157.7345 C.ar    1  UNL1        0.0298
     16 C         142.3271  143.8406  159.1387 C.ar    1  UNL1        0.0068
     17 C         140.2743  142.5496  166.2715 C.3     1  UNL1        0.1412
     18 C         141.0601  142.6378  167.5462 C.ar    1  UNL1        0.0017
     19 C         140.4350  143.2332  168.7728 C.ar    1  UNL1       -0.0023
     20 C         141.2207  143.3214  170.0476 C.ar    1  UNL1       -0.0003
     21 C         142.6315  142.8142  170.0957 C.ar    1  UNL1       -0.0000
     22 C         143.2566  142.2187  168.8689 C.ar    1  UNL1       -0.0003
     23 C         142.4709  142.1305  167.5943 C.ar    1  UNL1       -0.0023
     24 C         139.5641  141.2775  165.9148 C.ar    1  UNL1        0.1104
     25 N         139.2994  140.1263  166.8393 N.ar    1  UNL1       -0.2392
     26 C         138.5656  139.0705  166.0668 C.ar    1  UNL1        0.1061
     27 C         138.3767  139.5692  164.6647 C.ar    1  UNL1        0.0573
     28 S         138.9938  140.9332  164.5707 S.2     1  UNL1       -0.0683
@<TRIPOS>BOND
     1     1     2    2
     2     2     5    1
     3     5     6    1
     4     6     7   am
     5     7     8    2
     6     7    10    1
     7    10    11   ar
     8    11    12   ar
     9    12    13   ar
    10    13    14    1
    11    13    15   ar
    12    15    16   ar
    13     2     3   am
    14     3    17    1
    15    17    18    1
    16    18    19   ar
    17    19    20   ar
    18    20    21   ar
    19    21    22   ar
    20    22    23   ar
    21    17    24    1
    22    24    25   ar
    23    25    26   ar
    24    26    27   ar
    25    27    28   ar
    26    16    10   ar
    27    23    18   ar
    28    28    24   ar
    29     6     9    1
    30     3     4    1
@<TRIPOS>MOLECULE
*****
 28 30 0 0 0
SMALL
GASTEIGER

@<TRIPOS>ATOM
      1 O         144.6309  143.2139  164.7660 O.2     1  UNL1       -0.2732
      2 C         143.3296  143.7846  164.2854 C.2     1  UNL1        0.2430
      3 N         142.0329  143.2224  164.7880 N.am    1  UNL1       -0.2956
      4 H         141.1789  143.5970  164.4726 H       1  UNL1        0.1501
      5 C         143.3250  144.9174  163.3022 C.3     1  UNL1        0.1759
      6 N         142.7912  144.7056  161.9165 N.am    1  UNL1       -0.2931
      7 C         141.3128  144.7525  161.6669 C.2     1  UNL1        0.2462
      8 O         140.3682  145.0112  162.8030 O.2     1  UNL1       -0.2701
      9 H         143.4111  144.5358  161.1708 H       1  UNL1        0.1502
     10 C         140.7790  144.5407  160.2811 C.ar    1  UNL1        0.0535
     11 C         141.2221  145.4356  159.1619 C.ar    1  UNL1        0.0068
     12 C         140.6883  145.2238  157.7762 C.ar    1  UNL1        0.0298
     13 C         139.7114  144.1171  157.5098 C.ar    1  UNL1        0.1401
     14 F         139.1776  143.9053  156.1240 F       1  UNL1       -0.2042
     15 C         139.2684  143.2222  158.6290 C.ar    1  UNL1        0.0298
     16 C         139.8022  143.4340  160.0147 C.ar    1  UNL1        0.0068
     17 C         142.0375  142.0896  165.7712 C.3     1  UNL1        0.1412
     18 C         141.9232  142.3709  167.2402 C.ar    1  UNL1        0.0017
     19 C         143.1294  142.2482  168.1233 C.ar    1  UNL1       -0.0023
     20 C         143.0152  142.5295  169.5923 C.ar    1  UNL1       -0.0003
     21 C         141.6947  142.9336  170.1781 C.ar    1  UNL1       -0.0000
     22 C         140.4885  143.0563  169.2948 C.ar    1  UNL1       -0.0003
     23 C         140.6028  142.7750  167.8259 C.ar    1  UNL1       -0.0023
     24 C         142.1564  140.6754  165.2855 C.ar    1  UNL1        0.1104
     25 N         142.9656  140.2118  164.1106 N.ar    1  UNL1       -0.2392
     26 C         142.7963  138.7264  163.9883 C.ar    1  UNL1        0.1061
     27 C         141.8824  138.2720  165.0876 C.ar    1  UNL1        0.0573
     28 S         141.4869  139.4765  165.8893 S.2     1  UNL1       -0.0683
@<TRIPOS>BOND
     1     1     2    2
     2     2     5    1
     3     5     6    1
     4     6     7   am
     5     7     8    2
     6     7    10    1
     7    10    11   ar
     8    11    12   ar
     9    12    13   ar
    10    13    14    1
    11    13    15   ar
    12    15    16   ar
    13     2     3   am
    14     3    17    1
    15    17    18    1
    16    18    19   ar
    17    19    20   ar
    18    20    21   ar
    19    21    22   ar
    20    22    23   ar
    21    17    24    1
    22    24    25   ar
    23    25    26   ar
    24    26    27   ar
    25    27    28   ar
    26    16    10   ar
    27    23    18   ar
    28    28    24   ar
    29     6     9    1
    30     3     4    1
@<TRIPOS>MOLECULE
*****
 28 30 0 0 0
SMALL
GASTEIGER

@<TRIPOS>ATOM
      1 O         138.7935  138.2112  165.6689 O.2     1  UNL1       -0.2732
      2 C         140.2208  138.4689  165.2863 C.2     1  UNL1        0.2430
      3 N         140.8649  139.7790  165.6308 N.am    1  UNL1       -0.2956
      4 H         141.8017  139.9481  165.3797 H       1  UNL1        0.1501
      5 C         141.0040  137.4164  164.5590 C.3     1  UNL1        0.1759
      6 N         140.9293  137.3252  163.0636 N.am    1  UNL1       -0.2931
      7 C         141.5897  138.3705  162.2145 C.2     1  UNL1        0.2462
      8 O         142.3248  139.5072  162.8607 O.2     1  UNL1       -0.2701
      9 H         140.4468  136.5792  162.6395 H       1  UNL1        0.1502
     10 C         141.5149  138.2793  160.7191 C.ar    1  UNL1        0.0535
     11 C         140.2327  138.6026  160.0111 C.ar    1  UNL1        0.0068
     12 C         140.1580  138.5113  158.5158 C.ar    1  UNL1        0.0298
     13 C         141.3656  138.0967  157.7284 C.ar    1  UNL1        0.1401
     14 F         141.2909  138.0055  156.2330 F       1  UNL1       -0.2042
     15 C         142.6478  137.7734  158.4364 C.ar    1  UNL1        0.0298
     16 C         142.7225  137.8647  159.9317 C.ar    1  UNL1        0.0068
     17 C         140.0817  140.8315  166.3581 C.3     1  UNL1        0.1412
     18 C         139.3870  141.9153  165.5883 C.ar    1  UNL1        0.0017
     19 C         138.2423  141.5749  164.6807 C.ar    1  UNL1       -0.0023
     20 C         137.5475  142.6588  163.9109 C.ar    1  UNL1       -0.0003
     21 C         137.9975  144.0831  164.0487 C.ar    1  UNL1       -0.0000
     22 C         139.1423  144.4234  164.9563 C.ar    1  UNL1       -0.0003
     23 C         139.8370  143.3396  165.7261 C.ar    1  UNL1       -0.0023
     24 C         139.9932  140.8001  167.8552 C.ar    1  UNL1        0.1104
     25 N         139.1583  139.8568  168.6695 N.ar    1  UNL1       -0.2392
     26 C         139.3732  140.1801  170.1184 C.ar    1  UNL1        0.1061
     27 C         140.3410  141.3233  170.1995 C.ar    1  UNL1        0.0573
     28 S         140.7242  141.7065  168.8008 S.2     1  UNL1       -0.0683
@<TRIPOS>BOND
     1     1     2    2
     2     2     5    1
     3     5     6    1
     4     6     7   am
     5     7     8    2
     6     7    10    1
     7    10    11   ar
     8    11    12   ar
     9    12    13   ar
    10    13    14    1
    11    13    15   ar
    12    15    16   ar
    13     2     3   am
    14     3    17    1
    15    17    18    1
    16    18    19   ar
    17    19    20   ar
    18    20    21   ar
    19    21    22   ar
    20    22    23   ar
    21    17    24    1
    22    24    25   ar
    23    25    26   ar
    24    26    27   ar
    25    27    28   ar
    26    16    10   ar
    27    23    18   ar
    28    28    24   ar
    29     6     9    1
    30     3     4    1
@<TRIPOS>MOLECULE
*****
 28 30 0 0 0
SMALL
GASTEIGER

@<TRIPOS>ATOM
      1 O         141.8765  140.2728  158.9653 O.2     1  UNL1       -0.2732
      2 C         142.5397  138.9276  158.9390 C.2     1  UNL1        0.2430
      3 N         142.8941  138.2409  160.2245 N.am    1  UNL1       -0.2956
      4 H         143.3294  137.3580  160.2072 H       1  UNL1        0.1501
      5 C         142.8484  138.2692  157.6271 C.3     1  UNL1        0.1759
      6 N         142.4441  136.8443  157.3896 N.am    1  UNL1       -0.2931
      7 C         143.2432  135.9836  156.4565 C.2     1  UNL1        0.2462
      8 O         144.4465  136.5477  155.7609 O.2     1  UNL1       -0.2701
      9 H         141.6544  136.4740  157.8461 H       1  UNL1        0.1502
     10 C         142.8390  134.5587  156.2190 C.ar    1  UNL1        0.0535
     11 C         141.8398  134.2309  155.1493 C.ar    1  UNL1        0.0068
     12 C         141.4356  132.8061  154.9119 C.ar    1  UNL1        0.0298
     13 C         142.0307  131.7090  155.7440 C.ar    1  UNL1        0.1401
     14 F         141.6265  130.2841  155.5065 F       1  UNL1       -0.2042
     15 C         143.0299  132.0368  156.8136 C.ar    1  UNL1        0.0298
     16 C         143.4340  133.4617  157.0511 C.ar    1  UNL1        0.0068
     17 C         142.5854  138.8993  161.5365 C.3     1  UNL1        0.1412
     18 C         143.6218  139.7475  162.2122 C.ar    1  UNL1        0.0017
     19 C         144.1731  139.3378  163.5457 C.ar    1  UNL1       -0.0023
     20 C         145.2095  140.1860  164.2215 C.ar    1  UNL1       -0.0003
     21 C         145.6945  141.4438  163.5637 C.ar    1  UNL1       -0.0000
     22 C         145.1431  141.8534  162.2301 C.ar    1  UNL1       -0.0003
     23 C         144.1068  141.0053  161.5544 C.ar    1  UNL1       -0.0023
     24 C         141.2404  138.7095  162.1728 C.ar    1  UNL1        0.1104
     25 N         140.6280  137.3978  162.5657 N.ar    1  UNL1       -0.2392
     26 C         139.2807  137.6757  163.1636 C.ar    1  UNL1        0.1061
     27 C         139.0603  139.1593  163.1401 C.ar    1  UNL1        0.0573
     28 S         140.2714  139.7983  162.5277 S.2     1  UNL1       -0.0683
@<TRIPOS>BOND
     1     1     2    2
     2     2     5    1
     3     5     6    1
     4     6     7   am
     5     7     8    2
     6     7    10    1
     7    10    11   ar
     8    11    12   ar
     9    12    13   ar
    10    13    14    1
    11    13    15   ar
    12    15    16   ar
    13     2     3   am
    14     3    17    1
    15    17    18    1
    16    18    19   ar
    17    19    20   ar
    18    20    21   ar
    19    21    22   ar
    20    22    23   ar
    21    17    24    1
    22    24    25   ar
    23    25    26   ar
    24    26    27   ar
    25    27    28   ar
    26    16    10   ar
    27    23    18   ar
    28    28    24   ar
    29     6     9    1
    30     3     4    1
@<TRIPOS>MOLECULE
*****
 28 30 0 0 0
SMALL
GASTEIGER

@<TRIPOS>ATOM
      1 O         137.6897  144.3006  162.5121 O.2     1  UNL1       -0.2732
      2 C         139.0666  144.2488  163.1049 C.2     1  UNL1        0.2430
      3 N         140.1759  143.5606  162.3661 N.am    1  UNL1       -0.2956
      4 H         141.0796  143.5266  162.7552 H       1  UNL1        0.1501
      5 C         139.3343  144.8852  164.4365 C.3     1  UNL1        0.1759
      6 N         139.2353  144.0692  165.6913 N.am    1  UNL1       -0.2931
      7 C         140.3422  143.1275  166.0628 C.2     1  UNL1        0.2462
      8 O         141.5481  143.0018  165.1796 O.2     1  UNL1       -0.2701
      9 H         138.4439  144.1517  166.2710 H       1  UNL1        0.1502
     10 C         140.2432  142.3115  167.3176 C.ar    1  UNL1        0.0535
     11 C         140.4928  142.9523  168.6506 C.ar    1  UNL1        0.0068
     12 C         140.3938  142.1363  169.9053 C.ar    1  UNL1        0.0298
     13 C         140.0452  140.6795  169.8270 C.ar    1  UNL1        0.1401
     14 F         139.9462  139.8635  171.0818 F       1  UNL1       -0.2042
     15 C         139.7956  140.0387  168.4940 C.ar    1  UNL1        0.0298
     16 C         139.8946  140.8547  167.2393 C.ar    1  UNL1        0.0068
     17 C         139.9082  142.9241  161.0344 C.3     1  UNL1        0.1412
     18 C         139.5476  141.4701  160.9570 C.ar    1  UNL1        0.0017
     19 C         138.1136  141.0459  161.0743 C.ar    1  UNL1       -0.0023
     20 C         137.7529  139.5919  160.9968 C.ar    1  UNL1       -0.0003
     21 C         138.8262  138.5623  160.8022 C.ar    1  UNL1       -0.0000
     22 C         140.2602  138.9866  160.6849 C.ar    1  UNL1       -0.0003
     23 C         140.6208  140.4405  160.7624 C.ar    1  UNL1       -0.0023
     24 C         140.0013  143.7415  159.7802 C.ar    1  UNL1        0.1104
     25 N         139.5762  143.3049  158.4096 N.ar    1  UNL1       -0.2392
     26 C         139.8479  144.4327  157.4587 C.ar    1  UNL1        0.1061
     27 C         140.4410  145.5664  158.2416 C.ar    1  UNL1        0.0573
     28 S         140.5358  145.1393  159.6764 S.2     1  UNL1       -0.0683
@<TRIPOS>BOND
     1     1     2    2
     2     2     5    1
     3     5     6    1
     4     6     7   am
     5     7     8    2
     6     7    10    1
     7    10    11   ar
     8    11    12   ar
     9    12    13   ar
    10    13    14    1
    11    13    15   ar
    12    15    16   ar
    13     2     3   am
    14     3    17    1
    15    17    18    1
    16    18    19   ar
    17    19    20   ar
    18    20    21   ar
    19    21    22   ar
    20    22    23   ar
    21    17    24    1
    22    24    25   ar
    23    25    26   ar
    24    26    27   ar
    25    27    28   ar
    26    16    10   ar
    27    23    18   ar
    28    28    24   ar
    29     6     9    1
    30     3     4    1
@<TRIPOS>MOLECULE
*****
 28 30 0 0 0
SMALL
GASTEIGER

@<TRIPOS>ATOM
      1 O         142.9465  138.5234  166.0341 O.2     1  UNL1       -0.2732
      2 C         143.4741  139.6996  165.2673 C.2     1  UNL1        0.2430
      3 N         142.8114  141.0388  165.3983 N.am    1  UNL1       -0.2956
      4 H         143.1577  141.8108  164.8950 H       1  UNL1        0.1501
      5 C         144.6646  139.5367  164.3694 C.3     1  UNL1        0.1759
      6 N         144.5050  139.6582  162.8828 N.am    1  UNL1       -0.2931
      7 C         144.4076  141.0134  162.2473 C.2     1  UNL1        0.2462
      8 O         144.4697  142.2471  163.0983 O.2     1  UNL1       -0.2701
      9 H         144.4643  138.8485  162.3243 H       1  UNL1        0.1502
     10 C         144.2480  141.1350  160.7607 C.ar    1  UNL1        0.0535
     11 C         144.5527  142.4351  160.0775 C.ar    1  UNL1        0.0068
     12 C         144.3931  142.5566  158.5910 C.ar    1  UNL1        0.0298
     13 C         143.9289  141.3780  157.7877 C.ar    1  UNL1        0.1401
     14 F         143.7694  141.4995  156.3011 F       1  UNL1       -0.2042
     15 C         143.6243  140.0778  158.4709 C.ar    1  UNL1        0.0298
     16 C         143.7839  139.9563  159.9574 C.ar    1  UNL1        0.0068
     17 C         141.6208  141.2018  166.2962 C.3     1  UNL1        0.1412
     18 C         141.7677  141.8956  167.6180 C.ar    1  UNL1        0.0017
     19 C         140.6327  142.7063  168.1697 C.ar    1  UNL1       -0.0023
     20 C         140.7795  143.4001  169.4915 C.ar    1  UNL1       -0.0003
     21 C         142.0614  143.2832  170.2615 C.ar    1  UNL1       -0.0000
     22 C         143.1965  142.4725  169.7098 C.ar    1  UNL1       -0.0003
     23 C         143.0496  141.7787  168.3880 C.ar    1  UNL1       -0.0023
     24 C         140.2835  140.6710  165.8723 C.ar    1  UNL1        0.1104
     25 N         139.4858  141.1339  164.6894 N.ar    1  UNL1       -0.2392
     26 C         138.2183  140.3330  164.6429 C.ar    1  UNL1        0.1061
     27 C         138.2326  139.3752  165.7971 C.ar    1  UNL1        0.0573
     28 S         139.5090  139.5840  166.5570 S.2     1  UNL1       -0.0683
@<TRIPOS>BOND
     1     1     2    2
     2     2     5    1
     3     5     6    1
     4     6     7   am
     5     7     8    2
     6     7    10    1
     7    10    11   ar
     8    11    12   ar
     9    12    13   ar
    10    13    14    1
    11    13    15   ar
    12    15    16   ar
    13     2     3   am
    14     3    17    1
    15    17    18    1
    16    18    19   ar
    17    19    20   ar
    18    20    21   ar
    19    21    22   ar
    20    22    23   ar
    21    17    24    1
    22    24    25   ar
    23    25    26   ar
    24    26    27   ar
    25    27    28   ar
    26    16    10   ar
    27    23    18   ar
    28    28    24   ar
    29     6     9    1
    30     3     4    1
@<TRIPOS>MOLECULE
*****
 28 30 0 0 0
SMALL
GASTEIGER

@<TRIPOS>ATOM
      1 O         137.4321  142.9146  164.3855 O.2     1  UNL1       -0.2732
      2 C         138.7656  143.4361  163.9383 C.2     1  UNL1        0.2430
      3 N         140.0160  142.6734  164.2619 N.am    1  UNL1       -0.2956
      4 H         140.8912  143.0157  163.9683 H       1  UNL1        0.1501
      5 C         138.8486  144.7202  163.1675 C.3     1  UNL1        0.1759
      6 N         139.3247  144.7117  161.7451 N.am    1  UNL1       -0.2931
      7 C         140.7942  144.6741  161.4462 C.2     1  UNL1        0.2462
      8 O         141.7875  144.6451  162.5698 O.2     1  UNL1       -0.2701
      9 H         138.6728  144.7308  161.0076 H       1  UNL1        0.1502
     10 C         141.2703  144.6657  160.0238 C.ar    1  UNL1        0.0535
     11 C         142.4032  143.7705  159.6174 C.ar    1  UNL1        0.0068
     12 C         142.8792  143.7620  158.1950 C.ar    1  UNL1        0.0298
     13 C         142.2224  144.6487  157.1790 C.ar    1  UNL1        0.1401
     14 F         142.6986  144.6403  155.7565 F       1  UNL1       -0.2042
     15 C         141.0896  145.5439  157.5854 C.ar    1  UNL1        0.0298
     16 C         140.6135  145.5524  159.0077 C.ar    1  UNL1        0.0068
     17 C         139.9330  141.3892  165.0327 C.3     1  UNL1        0.1412
     18 C         139.9842  141.4096  166.5316 C.ar    1  UNL1        0.0017
     19 C         140.4915  142.6258  167.2482 C.ar    1  UNL1       -0.0023
     20 C         140.5427  142.6462  168.7473 C.ar    1  UNL1       -0.0003
     21 C         140.0867  141.4503  169.5296 C.ar    1  UNL1       -0.0000
     22 C         139.5795  140.2341  168.8129 C.ar    1  UNL1       -0.0003
     23 C         139.5282  140.2138  167.3140 C.ar    1  UNL1       -0.0023
     24 C         139.7988  140.0848  164.3045 C.ar    1  UNL1        0.1104
     25 N         138.5113  139.4160  163.9236 N.ar    1  UNL1       -0.2392
     26 C         138.8452  138.1379  163.2130 C.ar    1  UNL1        0.1061
     27 C         140.3392  138.0168  163.1547 C.ar    1  UNL1        0.0573
     28 S         140.9286  139.2199  163.8292 S.2     1  UNL1       -0.0683
@<TRIPOS>BOND
     1     1     2    2
     2     2     5    1
     3     5     6    1
     4     6     7   am
     5     7     8    2
     6     7    10    1
     7    10    11   ar
     8    11    12   ar
     9    12    13   ar
    10    13    14    1
    11    13    15   ar
    12    15    16   ar
    13     2     3   am
    14     3    17    1
    15    17    18    1
    16    18    19   ar
    17    19    20   ar
    18    20    21   ar
    19    21    22   ar
    20    22    23   ar
    21    17    24    1
    22    24    25   ar
    23    25    26   ar
    24    26    27   ar
    25    27    28   ar
    26    16    10   ar
    27    23    18   ar
    28    28    24   ar
    29     6     9    1
    30     3     4    1
@<TRIPOS>MOLECULE
*****
 28 30 0 0 0
SMALL
GASTEIGER

@<TRIPOS>ATOM
      1 O         141.2114  136.9326  164.6793 O.2     1  UNL1       -0.2732
      2 C         140.2068  137.9693  164.2720 C.2     1  UNL1        0.2430
      3 N         140.3653  139.3884  164.7311 N.am    1  UNL1       -0.2956
      4 H         139.7059  140.0689  164.4638 H       1  UNL1        0.1501
      5 C         139.0436  137.5869  163.4055 C.3     1  UNL1        0.1759
      6 N         139.1027  137.8201  161.9249 N.am    1  UNL1       -0.2931
      7 C         138.7746  139.1723  161.3649 C.2     1  UNL1        0.2462
      8 O         138.3873  140.2915  162.2855 O.2     1  UNL1       -0.2701
      9 H         139.3569  137.0855  161.3206 H       1  UNL1        0.1502
     10 C         138.8337  139.4055  159.8843 C.ar    1  UNL1        0.0535
     11 C         139.7099  138.5444  159.0238 C.ar    1  UNL1        0.0068
     12 C         139.7690  138.7776  157.5433 C.ar    1  UNL1        0.0298
     13 C         138.9518  139.8720  156.9232 C.ar    1  UNL1        0.1401
     14 F         139.0109  140.1051  155.4426 F       1  UNL1       -0.2042
     15 C         138.0755  140.7331  157.7837 C.ar    1  UNL1        0.0298
     16 C         138.0164  140.4999  159.2642 C.ar    1  UNL1        0.0068
     17 C         141.5285  139.7709  165.5976 C.3     1  UNL1        0.1412
     18 C         141.3831  139.7720  167.0906 C.ar    1  UNL1        0.0017
     19 C         142.5505  139.4051  167.9580 C.ar    1  UNL1       -0.0023
     20 C         142.4052  139.4061  169.4510 C.ar    1  UNL1       -0.0003
     21 C         141.0925  139.7743  170.0765 C.ar    1  UNL1       -0.0000
     22 C         139.9251  140.1413  169.2090 C.ar    1  UNL1       -0.0003
     23 C         140.0704  140.1402  167.7161 C.ar    1  UNL1       -0.0023
     24 C         142.8369  140.1523  164.9712 C.ar    1  UNL1        0.1104
     25 N         143.8426  139.2064  164.3847 N.ar    1  UNL1       -0.2392
     26 C         144.9967  140.0160  163.8722 C.ar    1  UNL1        0.1061
     27 C         144.7043  141.4623  164.1420 C.ar    1  UNL1        0.0573
     28 S         143.3695  141.5466  164.8212 S.2     1  UNL1       -0.0683
@<TRIPOS>BOND
     1     1     2    2
     2     2     5    1
     3     5     6    1
     4     6     7   am
     5     7     8    2
     6     7    10    1
     7    10    11   ar
     8    11    12   ar
     9    12    13   ar
    10    13    14    1
    11    13    15   ar
    12    15    16   ar
    13     2     3   am
    14     3    17    1
    15    17    18    1
    16    18    19   ar
    17    19    20   ar
    18    20    21   ar
    19    21    22   ar
    20    22    23   ar
    21    17    24    1
    22    24    25   ar
    23    25    26   ar
    24    26    27   ar
    25    27    28   ar
    26    16    10   ar
    27    23    18   ar
    28    28    24   ar
    29     6     9    1
    30     3     4    1
@<TRIPOS>MOLECULE
*****
 28 30 0 0 0
SMALL
GASTEIGER

@<TRIPOS>ATOM
      1 O         143.1422  138.8254  166.0165 O.2     1  UNL1       -0.2732
      2 C         141.8166  138.7585  165.3177 C.2     1  UNL1        0.2430
      3 N         140.8675  139.9173  165.3974 N.am    1  UNL1       -0.2956
      4 H         139.9974  139.8733  164.9388 H       1  UNL1        0.1501
      5 C         141.4401  137.5329  164.5393 C.3     1  UNL1        0.1759
      6 N         141.6678  137.4862  163.0574 N.am    1  UNL1       -0.2931
      7 C         140.8153  138.3131  162.1412 C.2     1  UNL1        0.2462
      8 O         139.7351  139.1867  162.7069 O.2     1  UNL1       -0.2701
      9 H         142.3768  136.9129  162.6861 H       1  UNL1        0.1502
     10 C         141.0430  138.2665  160.6592 C.ar    1  UNL1        0.0535
     11 C         142.4089  137.9615  160.1195 C.ar    1  UNL1        0.0068
     12 C         142.6365  137.9148  158.6377 C.ar    1  UNL1        0.0298
     13 C         141.4983  138.1732  157.6955 C.ar    1  UNL1        0.1401
     14 F         141.7259  138.1266  156.2136 F       1  UNL1       -0.2042
     15 C         140.1324  138.4782  158.2352 C.ar    1  UNL1        0.0298
     16 C         139.9048  138.5249  159.7171 C.ar    1  UNL1        0.0068
     17 C         141.2440  141.1430  166.1759 C.3     1  UNL1        0.1412
     18 C         140.6676  141.3703  167.5419 C.ar    1  UNL1        0.0017
     19 C         139.9041  140.2750  168.2255 C.ar    1  UNL1       -0.0023
     20 C         139.3277  140.5022  169.5916 C.ar    1  UNL1       -0.0003
     21 C         139.5149  141.8248  170.2741 C.ar    1  UNL1       -0.0000
     22 C         140.2785  142.9201  169.5904 C.ar    1  UNL1       -0.0003
     23 C         140.8548  142.6929  168.2244 C.ar    1  UNL1       -0.0023
     24 C         142.1968  142.1414  165.5882 C.ar    1  UNL1        0.1104
     25 N         143.6446  142.2964  165.9484 N.ar    1  UNL1       -0.2392
     26 C         144.2117  143.4109  165.1200 C.ar    1  UNL1        0.1061
     27 C         143.1143  143.9447  164.2477 C.ar    1  UNL1        0.0573
     28 S         141.8690  143.1602  164.5371 S.2     1  UNL1       -0.0683
@<TRIPOS>BOND
     1     1     2    2
     2     2     5    1
     3     5     6    1
     4     6     7   am
     5     7     8    2
     6     7    10    1
     7    10    11   ar
     8    11    12   ar
     9    12    13   ar
    10    13    14    1
    11    13    15   ar
    12    15    16   ar
    13     2     3   am
    14     3    17    1
    15    17    18    1
    16    18    19   ar
    17    19    20   ar
    18    20    21   ar
    19    21    22   ar
    20    22    23   ar
    21    17    24    1
    22    24    25   ar
    23    25    26   ar
    24    26    27   ar
    25    27    28   ar
    26    16    10   ar
    27    23    18   ar
    28    28    24   ar
    29     6     9    1
    30     3     4    1
