@<TRIPOS>MOLECULE
*****
 32 34 0 0 0
SMALL
GASTEIGER

@<TRIPOS>ATOM
      1 C         141.9095  140.2873  165.5860 C.2     1  UNL1        0.2488
      2 O         142.6055  141.5398  165.1425 O.2     1  UNL1       -0.2700
      3 N         141.6677  139.1768  164.6070 N.am    1  UNL1       -0.2999
      4 H         141.2109  138.3547  164.8981 H       1  UNL1        0.1498
      5 C         139.9914  140.1698  167.3345 C.ar    1  UNL1        0.1443
      6 C         139.5373  140.0277  168.7570 C.ar    1  UNL1        0.0520
      7 C         140.5471  139.8609  169.8536 C.ar    1  UNL1        0.0553
      8 N         140.0930  139.7188  171.2761 N.pl3   1  UNL1       -0.3563
      9 C         142.0110  139.8363  169.5276 C.ar    1  UNL1        0.0709
     10 CL        143.0209  139.6695  170.6242 Cl      1  UNL1       -0.0810
     11 C         142.4651  139.9784  168.1051 C.ar    1  UNL1        0.0202
     12 C         141.4553  140.1452  167.0086 C.ar    1  UNL1        0.0882
     13 H         139.1321  139.7350  171.4900 H       1  UNL1        0.1424
     14 H         140.7557  139.6094  171.9958 H       1  UNL1        0.1424
     15 C         138.0521  139.2098  165.8966 C.3     1  UNL1        0.2525
     16 O         138.9816  140.3365  166.2379 O.3     1  UNL1       -0.4712
     17 C         142.1218  139.3189  163.1845 C.3     1  UNL1        0.1017
     18 C         143.5668  139.1192  162.8350 C.3     1  UNL1        0.0394
     19 C         144.0209  139.2613  161.4124 C.3     1  UNL1        0.0739
     20 N         143.0300  139.6031  160.3394 N.3     1  UNL1       -0.2705
     21 C         141.5850  139.8027  160.6889 C.3     1  UNL1        0.1037
     22 C         141.1309  139.6607  162.1114 C.3     1  UNL1        0.1490
     23 O         139.6859  139.8603  162.4609 O.3     1  UNL1       -0.3505
     24 C         138.7055  138.7422  162.2650 C.3     1  UNL1        0.1741
     25 C         143.4841  139.7451  158.9170 C.3     1  UNL1        0.0743
     26 C         144.1768  140.9992  158.4725 C.3     1  UNL1        0.0457
     27 C         143.5303  142.3337  158.6993 C.3     1  UNL1        0.1527
     28 N         143.6382  143.0014  160.0382 N.ar    1  UNL1       -0.1508
     29 N         144.6734  142.7152  161.0853 N.ar    1  UNL1       -0.1263
     30 C         144.4049  143.6094  162.2593 C.ar    1  UNL1        0.2447
     31 N         143.2037  144.4483  161.9377 N.ar    1  UNL1       -0.1044
     32 N         142.7298  144.0726  160.5650 N.ar    1  UNL1       -0.0450
@<TRIPOS>BOND
     1    15    16    1
     2    16     5    1
     3     5     6   ar
     4     6     7   ar
     5     7     8    1
     6     7     9   ar
     7     9    10    1
     8     9    11   ar
     9    11    12   ar
    10    12     1    1
    11     1     2    2
    12     1     3   am
    13    17     3    1
    14    17    18    1
    15    18    19    1
    16    19    20    1
    17    20    25    1
    18    25    26    1
    19    26    27    1
    20    27    28    1
    21    28    29   ar
    22    29    30   ar
    23    30    31   ar
    24    31    32   ar
    25    20    21    1
    26    21    22    1
    27    22    23    1
    28    23    24    1
    29    12     5   ar
    30    22    17    1
    31    32    28   ar
    32     8    13    1
    33     8    14    1
    34     3     4    1
@<TRIPOS>MOLECULE
*****
 32 34 0 0 0
SMALL
GASTEIGER

@<TRIPOS>ATOM
      1 C         141.5314  139.8958  165.6275 C.2     1  UNL1        0.2488
      2 O         141.4374  141.1452  164.8029 O.2     1  UNL1       -0.2700
      3 N         141.9242  138.5996  164.9830 N.am    1  UNL1       -0.2999
      4 H         141.9859  137.7795  165.5243 H       1  UNL1        0.1498
      5 C         139.8118  140.0246  167.5708 C.ar    1  UNL1        0.1443
      6 C         139.5129  140.0713  169.0400 C.ar    1  UNL1        0.0520
      7 C         140.6348  140.0362  170.0350 C.ar    1  UNL1        0.0553
      8 N         140.3359  140.0829  171.5043 N.pl3   1  UNL1       -0.3563
      9 C         142.0555  139.9542  169.5609 C.ar    1  UNL1        0.0709
     10 CL        143.1774  139.9190  170.5560 Cl      1  UNL1       -0.0810
     11 C         142.3543  139.9074  168.0918 C.ar    1  UNL1        0.0202
     12 C         141.2325  139.9426  167.0967 C.ar    1  UNL1        0.0882
     13 H         139.4034  140.1367  171.8154 H       1  UNL1        0.1424
     14 H         141.0722  140.0599  172.1574 H       1  UNL1        0.1424
     15 C         138.0000  138.7886  166.1780 C.3     1  UNL1        0.2525
     16 O         138.6899  140.0597  166.5758 O.3     1  UNL1       -0.4712
     17 C         142.2231  138.5527  163.5139 C.3     1  UNL1        0.1017
     18 C         141.1429  138.1854  162.5401 C.3     1  UNL1        0.0394
     19 C         141.4419  138.1386  161.0708 C.3     1  UNL1        0.0739
     20 N         142.8209  138.4591  160.5755 N.3     1  UNL1       -0.2705
     21 C         143.9011  138.8264  161.5493 C.3     1  UNL1        0.1037
     22 C         143.6022  138.8733  163.0184 C.3     1  UNL1        0.1490
     23 O         144.6824  139.2406  163.9922 O.3     1  UNL1       -0.3505
     24 C         145.2610  140.6245  163.9837 C.3     1  UNL1        0.1741
     25 C         143.1198  138.4123  159.1064 C.3     1  UNL1        0.0743
     26 C         142.2986  137.5425  158.2013 C.3     1  UNL1        0.0457
     27 C         142.9319  136.8961  157.0049 C.3     1  UNL1        0.1527
     28 N         142.7551  135.4259  156.7654 N.ar    1  UNL1       -0.1508
     29 N         143.4982  134.3237  157.4605 N.ar    1  UNL1       -0.1263
     30 C         143.0066  133.0164  156.9135 C.ar    1  UNL1        0.2447
     31 N         141.9597  133.3106  155.8803 N.ar    1  UNL1       -0.1044
     32 N         141.8042  134.7997  155.7887 N.ar    1  UNL1       -0.0450
@<TRIPOS>BOND
     1    15    16    1
     2    16     5    1
     3     5     6   ar
     4     6     7   ar
     5     7     8    1
     6     7     9   ar
     7     9    10    1
     8     9    11   ar
     9    11    12   ar
    10    12     1    1
    11     1     2    2
    12     1     3   am
    13    17     3    1
    14    17    18    1
    15    18    19    1
    16    19    20    1
    17    20    25    1
    18    25    26    1
    19    26    27    1
    20    27    28    1
    21    28    29   ar
    22    29    30   ar
    23    30    31   ar
    24    31    32   ar
    25    20    21    1
    26    21    22    1
    27    22    23    1
    28    23    24    1
    29    12     5   ar
    30    22    17    1
    31    32    28   ar
    32     8    13    1
    33     8    14    1
    34     3     4    1
@<TRIPOS>MOLECULE
*****
 32 34 0 0 0
SMALL
GASTEIGER

@<TRIPOS>ATOM
      1 C         141.7321  139.8618  165.6408 C.2     1  UNL1        0.2488
      2 O         142.3852  141.0348  164.9720 O.2     1  UNL1       -0.2700
      3 N         141.4407  138.6173  164.8558 N.am    1  UNL1       -0.2999
      4 H         141.0121  137.8474  165.2948 H       1  UNL1        0.1498
      5 C         139.9317  140.0427  167.5053 C.ar    1  UNL1        0.1443
      6 C         139.5700  140.1141  168.9592 C.ar    1  UNL1        0.0520
      7 C         140.6468  140.0761  170.0027 C.ar    1  UNL1        0.0553
      8 N         140.2850  140.1476  171.4567 N.pl3   1  UNL1       -0.3563
      9 C         142.0854  139.9667  169.5923 C.ar    1  UNL1        0.0709
     10 CL        143.1622  139.9287  170.6359 Cl      1  UNL1       -0.0810
     11 C         142.4471  139.8953  168.1384 C.ar    1  UNL1        0.0202
     12 C         141.3703  139.9333  167.0948 C.ar    1  UNL1        0.0882
     13 H         139.3408  140.2194  171.7261 H       1  UNL1        0.1424
     14 H         140.9918  140.1227  172.1417 H       1  UNL1        0.1424
     15 C         137.9757  138.8844  166.2473 C.3     1  UNL1        0.2525
     16 O         138.8549  140.0807  166.4617 O.3     1  UNL1       -0.4712
     17 C         141.8025  138.5459  163.4018 C.3     1  UNL1        0.1017
     18 C         143.2345  138.3660  162.9932 C.3     1  UNL1        0.0394
     19 C         143.5963  138.2945  161.5392 C.3     1  UNL1        0.0739
     20 N         142.5260  138.4029  160.4939 N.3     1  UNL1       -0.2705
     21 C         141.0940  138.5827  160.9025 C.3     1  UNL1        0.1037
     22 C         140.7322  138.6542  162.3564 C.3     1  UNL1        0.1490
     23 O         139.3002  138.8340  162.7650 O.3     1  UNL1       -0.3505
     24 C         138.2104  138.1374  162.0055 C.3     1  UNL1        0.1741
     25 C         142.8878  138.3314  159.0399 C.3     1  UNL1        0.0743
     26 C         141.8663  137.8908  158.0337 C.3     1  UNL1        0.0457
     27 C         142.3070  137.3123  156.7217 C.3     1  UNL1        0.1527
     28 N         142.3350  135.8249  156.5295 N.ar    1  UNL1       -0.1508
     29 N         143.2496  134.8627  157.2278 N.ar    1  UNL1       -0.1263
     30 C         142.9332  133.4817  156.7351 C.ar    1  UNL1        0.2447
     31 N         141.8230  133.5904  155.7322 N.ar    1  UNL1       -0.1044
     32 N         141.4532  135.0386  155.6051 N.ar    1  UNL1       -0.0450
@<TRIPOS>BOND
     1    15    16    1
     2    16     5    1
     3     5     6   ar
     4     6     7   ar
     5     7     8    1
     6     7     9   ar
     7     9    10    1
     8     9    11   ar
     9    11    12   ar
    10    12     1    1
    11     1     2    2
    12     1     3   am
    13    17     3    1
    14    17    18    1
    15    18    19    1
    16    19    20    1
    17    20    25    1
    18    25    26    1
    19    26    27    1
    20    27    28    1
    21    28    29   ar
    22    29    30   ar
    23    30    31   ar
    24    31    32   ar
    25    20    21    1
    26    21    22    1
    27    22    23    1
    28    23    24    1
    29    12     5   ar
    30    22    17    1
    31    32    28   ar
    32     8    13    1
    33     8    14    1
    34     3     4    1
@<TRIPOS>MOLECULE
*****
 32 34 0 0 0
SMALL
GASTEIGER

@<TRIPOS>ATOM
      1 C         140.9092  142.0751  165.6824 C.2     1  UNL1        0.2488
      2 O         141.2372  143.4424  165.1602 O.2     1  UNL1       -0.2700
      3 N         140.2392  141.0723  164.7903 N.am    1  UNL1       -0.2999
      4 H         140.0239  140.1749  165.1331 H       1  UNL1        0.1498
      5 C         142.3188  140.6935  167.3718 C.ar    1  UNL1        0.1443
      6 C         142.6606  140.3288  168.7861 C.ar    1  UNL1        0.0520
      7 C         141.9347  140.9811  169.9252 C.ar    1  UNL1        0.0553
      8 N         142.2767  140.6165  171.3395 N.pl3   1  UNL1       -0.3563
      9 C         140.8670  141.9981  169.6501 C.ar    1  UNL1        0.0709
     10 CL        140.1411  142.6504  170.7892 Cl      1  UNL1       -0.0810
     11 C         140.5252  142.3627  168.2358 C.ar    1  UNL1        0.0202
     12 C         141.2511  141.7104  167.0967 C.ar    1  UNL1        0.0882
     13 H         142.9775  139.9490  171.5201 H       1  UNL1        0.1424
     14 H         141.8002  141.0446  172.0871 H       1  UNL1        0.1424
     15 C         143.3019  138.5636  166.2551 C.3     1  UNL1        0.2525
     16 O         143.0447  140.0412  166.2327 O.3     1  UNL1       -0.4712
     17 C         139.8973  141.4370  163.3761 C.3     1  UNL1        0.1017
     18 C         140.7830  140.9896  162.2512 C.3     1  UNL1        0.0394
     19 C         140.4410  141.3543  160.8369 C.3     1  UNL1        0.0739
     20 N         139.2135  142.1662  160.5476 N.3     1  UNL1       -0.2705
     21 C         138.3278  142.6135  161.6725 C.3     1  UNL1        0.1037
     22 C         138.6697  142.2489  163.0867 C.3     1  UNL1        0.1490
     23 O         137.7840  142.6963  164.2117 O.3     1  UNL1       -0.3505
     24 C         137.8129  144.1254  164.6662 C.3     1  UNL1        0.1741
     25 C         138.8716  142.5308  159.1333 C.3     1  UNL1        0.0743
     26 C         139.8471  143.3113  158.3032 C.3     1  UNL1        0.0457
     27 C         140.1954  144.7203  158.6821 C.3     1  UNL1        0.1527
     28 N         140.4914  145.0610  160.1126 N.ar    1  UNL1       -0.1508
     29 N         139.5938  145.8238  161.0411 N.ar    1  UNL1       -0.1263
     30 C         140.2845  145.9329  162.3681 C.ar    1  UNL1        0.2447
     31 N         141.6091  145.2374  162.2597 N.ar    1  UNL1       -0.1044
     32 N         141.7370  144.6985  160.8657 N.ar    1  UNL1       -0.0450
@<TRIPOS>BOND
     1    15    16    1
     2    16     5    1
     3     5     6   ar
     4     6     7   ar
     5     7     8    1
     6     7     9   ar
     7     9    10    1
     8     9    11   ar
     9    11    12   ar
    10    12     1    1
    11     1     2    2
    12     1     3   am
    13    17     3    1
    14    17    18    1
    15    18    19    1
    16    19    20    1
    17    20    25    1
    18    25    26    1
    19    26    27    1
    20    27    28    1
    21    28    29   ar
    22    29    30   ar
    23    30    31   ar
    24    31    32   ar
    25    20    21    1
    26    21    22    1
    27    22    23    1
    28    23    24    1
    29    12     5   ar
    30    22    17    1
    31    32    28   ar
    32     8    13    1
    33     8    14    1
    34     3     4    1
@<TRIPOS>MOLECULE
*****
 32 34 0 0 0
SMALL
GASTEIGER

@<TRIPOS>ATOM
      1 C         140.5984  142.5010  165.8652 C.2     1  UNL1        0.2488
      2 O         141.9698  142.8047  165.3389 O.2     1  UNL1       -0.2700
      3 N         139.3873  142.8765  165.0639 N.am    1  UNL1       -0.2999
      4 H         138.4872  142.6771  165.4094 H       1  UNL1        0.1498
      5 C         139.5754  140.6005  167.3115 C.ar    1  UNL1        0.1443
      6 C         139.4152  139.9214  168.6393 C.ar    1  UNL1        0.0520
      7 C         140.1177  140.4635  169.8486 C.ar    1  UNL1        0.0553
      8 N         139.9574  139.7843  171.1765 N.pl3   1  UNL1       -0.3563
      9 C         140.9804  141.6849  169.7302 C.ar    1  UNL1        0.0709
     10 CL        141.6828  142.2270  170.9396 Cl      1  UNL1       -0.0810
     11 C         141.1406  142.3640  168.4024 C.ar    1  UNL1        0.0202
     12 C         140.4381  141.8218  167.1931 C.ar    1  UNL1        0.0882
     13 H         139.3912  138.9827  171.2542 H       1  UNL1        0.1424
     14 H         140.4184  140.1402  171.9702 H       1  UNL1        0.1424
     15 C         138.0936  138.7803  166.1976 C.3     1  UNL1        0.2525
     16 O         138.8730  140.0583  166.1021 O.3     1  UNL1       -0.4712
     17 C         139.5475  143.5556  163.7361 C.3     1  UNL1        0.1017
     18 C         139.8493  145.0237  163.6762 C.3     1  UNL1        0.0394
     19 C         140.0095  145.7029  162.3483 C.3     1  UNL1        0.0739
     20 N         139.8679  144.9140  161.0805 N.3     1  UNL1       -0.2705
     21 C         139.5662  143.4459  161.1404 C.3     1  UNL1        0.1037
     22 C         139.4059  142.7667  162.4681 C.3     1  UNL1        0.1490
     23 O         139.1042  141.2986  162.5281 O.3     1  UNL1       -0.3505
     24 C         137.6889  140.8300  162.6938 C.3     1  UNL1        0.1741
     25 C         140.0281  145.5931  159.7527 C.3     1  UNL1        0.0743
     26 C         140.4362  144.7981  158.5480 C.3     1  UNL1        0.0457
     27 C         141.8595  144.8298  158.0753 C.3     1  UNL1        0.1527
     28 N         142.8608  143.8697  158.6458 N.ar    1  UNL1       -0.1508
     29 N         143.1127  143.6210  160.1035 N.ar    1  UNL1       -0.1263
     30 C         144.1936  142.5872  160.2174 C.ar    1  UNL1        0.2447
     31 N         144.6099  142.1971  158.8301 N.ar    1  UNL1       -0.1044
     32 N         143.7862  142.9896  157.8588 N.ar    1  UNL1       -0.0450
@<TRIPOS>BOND
     1    15    16    1
     2    16     5    1
     3     5     6   ar
     4     6     7   ar
     5     7     8    1
     6     7     9   ar
     7     9    10    1
     8     9    11   ar
     9    11    12   ar
    10    12     1    1
    11     1     2    2
    12     1     3   am
    13    17     3    1
    14    17    18    1
    15    18    19    1
    16    19    20    1
    17    20    25    1
    18    25    26    1
    19    26    27    1
    20    27    28    1
    21    28    29   ar
    22    29    30   ar
    23    30    31   ar
    24    31    32   ar
    25    20    21    1
    26    21    22    1
    27    22    23    1
    28    23    24    1
    29    12     5   ar
    30    22    17    1
    31    32    28   ar
    32     8    13    1
    33     8    14    1
    34     3     4    1
@<TRIPOS>MOLECULE
*****
 32 34 0 0 0
SMALL
GASTEIGER

@<TRIPOS>ATOM
      1 C         142.1828  140.4000  165.5491 C.2     1  UNL1        0.2488
      2 O         143.3103  139.5283  165.0814 O.2     1  UNL1       -0.2700
      3 N         141.6113  141.4424  164.6343 N.am    1  UNL1       -0.2999
      4 H         140.8713  142.0145  164.9413 H       1  UNL1        0.1498
      5 C         140.1478  140.3277  167.1627 C.ar    1  UNL1        0.1443
      6 C         139.5917  140.1570  168.5453 C.ar    1  UNL1        0.0520
      7 C         140.5144  139.8880  169.6969 C.ar    1  UNL1        0.0553
      8 N         139.9582  139.7173  171.0796 N.pl3   1  UNL1       -0.3563
      9 C         141.9932  139.7896  169.4659 C.ar    1  UNL1        0.0709
     10 CL        142.9159  139.5206  170.6176 Cl      1  UNL1       -0.0810
     11 C         142.5493  139.9603  168.0834 C.ar    1  UNL1        0.0202
     12 C         141.6266  140.2293  166.9317 C.ar    1  UNL1        0.0882
     13 H         138.9876  139.7819  171.2312 H       1  UNL1        0.1424
     14 H         140.5638  139.5407  171.8354 H       1  UNL1        0.1424
     15 C         138.3804  139.4902  165.4525 C.3     1  UNL1        0.2525
     16 O         139.2251  140.5967  166.0111 O.3     1  UNL1       -0.4712
     17 C         142.1674  141.6130  163.2517 C.3     1  UNL1        0.1017
     18 C         141.6802  140.7392  162.1341 C.3     1  UNL1        0.0394
     19 C         142.2364  140.9099  160.7515 C.3     1  UNL1        0.0739
     20 N         143.2797  141.9545  160.4865 N.3     1  UNL1       -0.2705
     21 C         143.7669  142.8284  161.6040 C.3     1  UNL1        0.1037
     22 C         143.2108  142.6577  162.9866 C.3     1  UNL1        0.1490
     23 O         143.6981  143.5315  164.1042 O.3     1  UNL1       -0.3505
     24 C         143.6057  145.0239  163.9842 C.3     1  UNL1        0.1741
     25 C         143.8358  142.1252  159.1039 C.3     1  UNL1        0.0743
     26 C         143.4123  143.2937  158.2641 C.3     1  UNL1        0.0457
     27 C         141.9545  143.5908  158.0731 C.3     1  UNL1        0.1527
     28 N         141.1424  144.1270  159.2146 N.ar    1  UNL1       -0.1508
     29 N         141.5035  145.2977  160.0801 N.ar    1  UNL1       -0.1263
     30 C         140.4110  145.4808  161.0915 C.ar    1  UNL1        0.2447
     31 N         139.3747  144.4233  160.8511 N.ar    1  UNL1       -0.1044
     32 N         139.8268  143.5865  159.6912 N.ar    1  UNL1       -0.0450
@<TRIPOS>BOND
     1    15    16    1
     2    16     5    1
     3     5     6   ar
     4     6     7   ar
     5     7     8    1
     6     7     9   ar
     7     9    10    1
     8     9    11   ar
     9    11    12   ar
    10    12     1    1
    11     1     2    2
    12     1     3   am
    13    17     3    1
    14    17    18    1
    15    18    19    1
    16    19    20    1
    17    20    25    1
    18    25    26    1
    19    26    27    1
    20    27    28    1
    21    28    29   ar
    22    29    30   ar
    23    30    31   ar
    24    31    32   ar
    25    20    21    1
    26    21    22    1
    27    22    23    1
    28    23    24    1
    29    12     5   ar
    30    22    17    1
    31    32    28   ar
    32     8    13    1
    33     8    14    1
    34     3     4    1
@<TRIPOS>MOLECULE
*****
 32 34 0 0 0
SMALL
GASTEIGER

@<TRIPOS>ATOM
      1 C         142.8788  141.8106  165.6867 C.2     1  UNL1        0.2488
      2 O         142.0771  142.9671  165.1675 O.2     1  UNL1       -0.2700
      3 N         143.7418  141.0163  164.7517 N.am    1  UNL1       -0.2999
      4 H         144.2680  140.2572  165.0925 H       1  UNL1        0.1498
      5 C         142.6364  140.0168  167.5505 C.ar    1  UNL1        0.1443
      6 C         142.5752  139.6547  169.0048 C.ar    1  UNL1        0.0520
      7 C         142.6952  140.7241  170.0497 C.ar    1  UNL1        0.0553
      8 N         142.6340  140.3619  171.5041 N.pl3   1  UNL1       -0.3563
      9 C         142.8764  142.1557  169.6404 C.ar    1  UNL1        0.0709
     10 CL        142.9964  143.2252  170.6853 Cl      1  UNL1       -0.0810
     11 C         142.9376  142.5179  168.1860 C.ar    1  UNL1        0.0202
     12 C         142.8176  141.4484  167.1411 C.ar    1  UNL1        0.0882
     13 H         142.5150  139.4223  171.7728 H       1  UNL1        0.1424
     14 H         142.7127  141.0638  172.1899 H       1  UNL1        0.1424
     15 C         143.6375  137.9729  166.2975 C.3     1  UNL1        0.2525
     16 O         142.5164  138.9474  166.5056 O.3     1  UNL1       -0.4712
     17 C         143.8030  141.3785  163.2974 C.3     1  UNL1        0.1017
     18 C         144.7913  142.4009  162.8201 C.3     1  UNL1        0.0394
     19 C         144.8525  142.7630  161.3657 C.3     1  UNL1        0.0739
     20 N         143.9255  142.1028  160.3887 N.3     1  UNL1       -0.2705
     21 C         142.9372  141.0803  160.8660 C.3     1  UNL1        0.1037
     22 C         142.8759  140.7182  162.3203 C.3     1  UNL1        0.1490
     23 O         141.8876  139.6957  162.7977 O.3     1  UNL1       -0.3505
     24 C         141.6210  138.4695  161.9759 C.3     1  UNL1        0.1741
     25 C         143.9867  142.4649  158.9344 C.3     1  UNL1        0.0743
     26 C         142.7477  142.9205  158.2221 C.3     1  UNL1        0.0457
     27 C         142.3088  144.3514  158.3214 C.3     1  UNL1        0.1527
     28 N         141.4546  144.7958  159.4715 N.ar    1  UNL1       -0.1508
     29 N         141.8653  144.8285  160.9138 N.ar    1  UNL1       -0.1263
     30 C         140.7043  145.3385  161.7150 C.ar    1  UNL1        0.2447
     31 N         139.5759  145.6210  160.7679 N.ar    1  UNL1       -0.1044
     32 N         140.0396  145.2856  159.3813 N.ar    1  UNL1       -0.0450
@<TRIPOS>BOND
     1    15    16    1
     2    16     5    1
     3     5     6   ar
     4     6     7   ar
     5     7     8    1
     6     7     9   ar
     7     9    10    1
     8     9    11   ar
     9    11    12   ar
    10    12     1    1
    11     1     2    2
    12     1     3   am
    13    17     3    1
    14    17    18    1
    15    18    19    1
    16    19    20    1
    17    20    25    1
    18    25    26    1
    19    26    27    1
    20    27    28    1
    21    28    29   ar
    22    29    30   ar
    23    30    31   ar
    24    31    32   ar
    25    20    21    1
    26    21    22    1
    27    22    23    1
    28    23    24    1
    29    12     5   ar
    30    22    17    1
    31    32    28   ar
    32     8    13    1
    33     8    14    1
    34     3     4    1
@<TRIPOS>MOLECULE
*****
 32 34 0 0 0
SMALL
GASTEIGER

@<TRIPOS>ATOM
      1 C         140.3638  141.8277  165.1785 C.2     1  UNL1        0.2488
      2 O         139.4171  142.7185  164.4299 O.2     1  UNL1       -0.2700
      3 N         141.4217  141.0657  164.4367 N.am    1  UNL1       -0.2999
      4 H         142.0430  140.4811  164.9281 H       1  UNL1        0.1498
      5 C         139.8689  140.3847  167.2815 C.ar    1  UNL1        0.1443
      6 C         139.7577  140.2560  168.7718 C.ar    1  UNL1        0.0520
      7 C         140.0302  141.4416  169.6494 C.ar    1  UNL1        0.0553
      8 N         139.9190  141.3128  171.1398 N.pl3   1  UNL1       -0.3563
      9 C         140.4138  142.7558  169.0367 C.ar    1  UNL1        0.0709
     10 CL        140.6863  143.9414  169.9143 Cl      1  UNL1       -0.0810
     11 C         140.5250  142.8845  167.5464 C.ar    1  UNL1        0.0202
     12 C         140.2525  141.6990  166.6688 C.ar    1  UNL1        0.0882
     13 H         139.6671  140.4502  171.5419 H       1  UNL1        0.1424
     14 H         140.0978  142.0909  171.7158 H       1  UNL1        0.1424
     15 C         138.1863  138.7373  166.1837 C.3     1  UNL1        0.2525
     16 O         139.5964  139.1992  166.4039 O.3     1  UNL1       -0.4712
     17 C         141.5329  141.1944  162.9465 C.3     1  UNL1        0.1017
     18 C         140.6508  140.3719  162.0547 C.3     1  UNL1        0.0394
     19 C         140.7621  140.5007  160.5643 C.3     1  UNL1        0.0739
     20 N         141.7554  141.4519  159.9658 N.3     1  UNL1       -0.2705
     21 C         142.6376  142.2745  160.8576 C.3     1  UNL1        0.1037
     22 C         142.5263  142.1457  162.3479 C.3     1  UNL1        0.1490
     23 O         143.4084  142.9683  163.2396 O.3     1  UNL1       -0.3505
     24 C         143.9800  144.2627  162.7419 C.3     1  UNL1        0.1741
     25 C         141.8667  141.5806  158.4755 C.3     1  UNL1        0.0743
     26 C         141.4642  142.8585  157.8010 C.3     1  UNL1        0.0457
     27 C         140.1438  143.4931  158.1232 C.3     1  UNL1        0.1527
     28 N         139.9451  144.1839  159.4398 N.ar    1  UNL1       -0.1508
     29 N         140.6162  145.4508  159.8809 N.ar    1  UNL1       -0.1263
     30 C         140.1262  145.7790  161.2601 C.ar    1  UNL1        0.2447
     31 N         139.1523  144.7149  161.6714 N.ar    1  UNL1       -0.1044
     32 N         139.0403  143.7290  160.5464 N.ar    1  UNL1       -0.0450
@<TRIPOS>BOND
     1    15    16    1
     2    16     5    1
     3     5     6   ar
     4     6     7   ar
     5     7     8    1
     6     7     9   ar
     7     9    10    1
     8     9    11   ar
     9    11    12   ar
    10    12     1    1
    11     1     2    2
    12     1     3   am
    13    17     3    1
    14    17    18    1
    15    18    19    1
    16    19    20    1
    17    20    25    1
    18    25    26    1
    19    26    27    1
    20    27    28    1
    21    28    29   ar
    22    29    30   ar
    23    30    31   ar
    24    31    32   ar
    25    20    21    1
    26    21    22    1
    27    22    23    1
    28    23    24    1
    29    12     5   ar
    30    22    17    1
    31    32    28   ar
    32     8    13    1
    33     8    14    1
    34     3     4    1
@<TRIPOS>MOLECULE
*****
 32 34 0 0 0
SMALL
GASTEIGER

@<TRIPOS>ATOM
      1 C         140.7278  141.8955  165.6836 C.2     1  UNL1        0.2488
      2 O         139.7623  142.8436  165.0364 O.2     1  UNL1       -0.2700
      3 N         141.1842  140.6710  164.9472 N.am    1  UNL1       -0.2999
      4 H         141.8180  140.0488  165.3720 H       1  UNL1        0.1498
      5 C         142.7130  142.1884  167.3339 C.ar    1  UNL1        0.1443
      6 C         143.2220  142.4648  168.7175 C.ar    1  UNL1        0.0520
      7 C         142.2551  142.7247  169.8344 C.ar    1  UNL1        0.0553
      8 N         142.7643  143.0011  171.2181 N.pl3   1  UNL1       -0.3563
      9 C         140.7791  142.7083  169.5678 C.ar    1  UNL1        0.0709
     10 CL        139.8122  142.9683  170.6847 Cl      1  UNL1       -0.0810
     11 C         140.2701  142.4319  168.1842 C.ar    1  UNL1        0.0202
     12 C         141.2370  142.1719  167.0672 C.ar    1  UNL1        0.0882
     13 H         143.7330  143.0119  171.3931 H       1  UNL1        0.1424
     14 H         142.1297  143.1718  171.9512 H       1  UNL1        0.1424
     15 C         144.2401  143.0745  165.4280 C.3     1  UNL1        0.2525
     16 O         143.6799  141.9284  166.2170 O.3     1  UNL1       -0.4712
     17 C         140.6752  140.3946  163.5636 C.3     1  UNL1        0.1017
     18 C         139.4174  139.6001  163.3720 C.3     1  UNL1        0.0394
     19 C         138.9083  139.3236  161.9884 C.3     1  UNL1        0.0739
     20 N         139.6570  139.8417  160.7963 N.3     1  UNL1       -0.2705
     21 C         140.9148  140.6363  160.9879 C.3     1  UNL1        0.1037
     22 C         141.4239  140.9127  162.3715 C.3     1  UNL1        0.1490
     23 O         142.6816  141.7073  162.5630 O.3     1  UNL1       -0.3505
     24 C         142.8560  143.0179  161.8548 C.3     1  UNL1        0.1741
     25 C         139.1479  139.5653  159.4127 C.3     1  UNL1        0.0743
     26 C         138.0877  140.4418  158.8146 C.3     1  UNL1        0.0457
     27 C         138.3307  141.9140  158.6605 C.3     1  UNL1        0.1527
     28 N         138.4944  142.7784  159.8754 N.ar    1  UNL1       -0.1508
     29 N         137.7335  142.6452  161.1612 N.ar    1  UNL1       -0.1263
     30 C         138.2165  143.7122  162.0984 C.ar    1  UNL1        0.2447
     31 N         139.2760  144.5048  161.3918 N.ar    1  UNL1       -0.1044
     32 N         139.4478  143.9277  160.0179 N.ar    1  UNL1       -0.0450
@<TRIPOS>BOND
     1    15    16    1
     2    16     5    1
     3     5     6   ar
     4     6     7   ar
     5     7     8    1
     6     7     9   ar
     7     9    10    1
     8     9    11   ar
     9    11    12   ar
    10    12     1    1
    11     1     2    2
    12     1     3   am
    13    17     3    1
    14    17    18    1
    15    18    19    1
    16    19    20    1
    17    20    25    1
    18    25    26    1
    19    26    27    1
    20    27    28    1
    21    28    29   ar
    22    29    30   ar
    23    30    31   ar
    24    31    32   ar
    25    20    21    1
    26    21    22    1
    27    22    23    1
    28    23    24    1
    29    12     5   ar
    30    22    17    1
    31    32    28   ar
    32     8    13    1
    33     8    14    1
    34     3     4    1
