@<TRIPOS>MOLECULE
*****
 44 47 0 0 0
SMALL
GASTEIGER

@<TRIPOS>ATOM
      1 C         139.0309  144.0349  164.6202 C.2     1  UNL1        0.2491
      2 O         137.8663  144.7660  165.2193 O.2     1  UNL1       -0.2699
      3 N         139.5862  144.4666  163.2953 N.am    1  UNL1       -0.2732
      4 C         140.7509  143.7355  162.6961 C.3     1  UNL1        0.1110
      5 C         141.3062  144.1672  161.3712 C.3     1  UNL1        0.0939
      6 N         140.6967  145.3299  160.6455 N.3     1  UNL1       -0.2698
      7 C         139.5320  146.0609  161.2446 C.3     1  UNL1        0.0939
      8 C         138.9767  145.6293  162.5696 C.3     1  UNL1        0.1110
      9 C         140.8593  140.5468  166.7974 C.ar    1  UNL1        0.1306
     10 C         141.3009  141.9446  167.1157 C.ar    1  UNL1        0.0110
     11 C         140.6914  143.1073  166.3900 C.ar    1  UNL1        0.0032
     12 C         139.6404  142.8722  165.3459 C.ar    1  UNL1        0.0532
     13 C         139.1988  141.4745  165.0276 C.ar    1  UNL1        0.0032
     14 C         139.8083  140.3118  165.7534 C.ar    1  UNL1        0.0110
     15 C         142.3519  142.1796  168.1598 C.3     1  UNL1        0.0218
     16 C         143.3815  142.3570  167.0835 C.3     1  UNL1        0.0045
     17 C         141.3224  142.0023  169.2361 C.3     1  UNL1        0.0045
     18 C         143.4029  142.4147  169.2039 C.3     1  UNL1        0.0045
     19 C         139.3666  138.9141  165.4350 C.3     1  UNL1        0.0218
     20 C         138.3357  138.9923  166.5217 C.3     1  UNL1        0.0045
     21 C         140.3976  138.8358  164.3483 C.3     1  UNL1        0.0045
     22 C         138.9250  137.5164  165.1167 C.3     1  UNL1        0.0045
     23 C         142.8180  138.8701  167.1167 C.3     1  UNL1        0.2524
     24 O         141.4688  139.3841  167.5231 O.3     1  UNL1       -0.4721
     25 C         141.2520  145.7615  159.3205 C.3     1  UNL1        0.0722
     26 C         140.9852  144.9422  158.0927 C.3     1  UNL1        0.0173
     27 C         141.7877  143.7027  157.8293 C.3     1  UNL1        0.0014
     28 C         141.2406  142.3595  158.2121 C.3     1  UNL1        0.0007
     29 C         142.1455  141.3243  158.8119 C.3     1  UNL1        0.0087
     30 C         141.9307  140.8685  160.2247 C.3     1  UNL1        0.0446
     31 C         140.6742  140.1370  160.5940 C.ar    1  UNL1       -0.0183
     32 C         140.6229  138.6408  160.5021 C.ar    1  UNL1       -0.0017
     33 C         139.3664  137.9094  160.8715 C.ar    1  UNL1        0.0293
     34 C         138.1613  138.6743  161.3327 C.ar    1  UNL1        0.1401
     35 F         136.9049  137.9429  161.7020 F       1  UNL1       -0.2042
     36 C         138.2127  140.1706  161.4245 C.ar    1  UNL1        0.0293
     37 C         139.4692  140.9020  161.0552 C.ar    1  UNL1       -0.0017
     38 C         142.9724  141.1440  161.2682 C.ar    1  UNL1       -0.0183
     39 C         142.7923  140.6237  162.6635 C.ar    1  UNL1       -0.0017
     40 C         143.8340  140.8992  163.7070 C.ar    1  UNL1        0.0293
     41 C         145.0558  141.6951  163.3552 C.ar    1  UNL1        0.1401
     42 F         146.0975  141.9706  164.3988 F       1  UNL1       -0.2042
     43 C         145.2360  142.2154  161.9599 C.ar    1  UNL1        0.0293
     44 C         144.1943  141.9399  160.9164 C.ar    1  UNL1       -0.0017
@<TRIPOS>BOND
     1    23    24    1
     2    24     9    1
     3     9    10   ar
     4    10    15    1
     5    15    16    1
     6    15    17    1
     7    15    18    1
     8    10    11   ar
     9    11    12   ar
    10    12     1    1
    11     1     2    2
    12     1     3   am
    13     3     4    1
    14     4     5    1
    15     5     6    1
    16     6    25    1
    17    25    26    1
    18    26    27    1
    19    27    28    1
    20    28    29    1
    21    29    30    1
    22    30    31    1
    23    31    32   ar
    24    32    33   ar
    25    33    34   ar
    26    34    35    1
    27    34    36   ar
    28    36    37   ar
    29    30    38    1
    30    38    39   ar
    31    39    40   ar
    32    40    41   ar
    33    41    42    1
    34    41    43   ar
    35    43    44   ar
    36     6     7    1
    37     7     8    1
    38    12    13   ar
    39    13    14   ar
    40    14    19    1
    41    19    20    1
    42    19    21    1
    43    19    22    1
    44    14     9   ar
    45     8     3    1
    46    37    31   ar
    47    44    38   ar
@<TRIPOS>MOLECULE
*****
 44 47 0 0 0
SMALL
GASTEIGER

@<TRIPOS>ATOM
      1 C         139.1112  144.1026  164.6774 C.2     1  UNL1        0.2491
      2 O         137.9998  144.9011  165.2915 O.2     1  UNL1       -0.2699
      3 N         139.6435  144.4746  163.3253 N.am    1  UNL1       -0.2732
      4 C         140.7550  143.6762  162.7111 C.3     1  UNL1        0.1110
      5 C         141.2872  144.0482  161.3590 C.3     1  UNL1        0.0939
      6 N         140.7081  145.2186  160.6210 N.3     1  UNL1       -0.2698
      7 C         139.5967  146.0171  161.2351 C.3     1  UNL1        0.0939
      8 C         139.0643  145.6451  162.5873 C.3     1  UNL1        0.1110
      9 C         140.8486  140.5913  166.8913 C.ar    1  UNL1        0.1306
     10 C         139.8372  140.3679  165.8064 C.ar    1  UNL1        0.0110
     11 C         139.2581  141.5384  165.0684 C.ar    1  UNL1        0.0032
     12 C         139.6903  142.9322  165.4153 C.ar    1  UNL1        0.0532
     13 C         140.7017  143.1555  166.5003 C.ar    1  UNL1        0.0032
     14 C         141.2808  141.9851  167.2383 C.ar    1  UNL1        0.0110
     15 C         139.4049  138.9740  165.4594 C.3     1  UNL1        0.0218
     16 C         140.5094  138.8831  164.4486 C.3     1  UNL1        0.0045
     17 C         138.3004  139.0650  166.4702 C.3     1  UNL1        0.0045
     18 C         138.9726  137.5803  165.1124 C.3     1  UNL1        0.0045
     19 C         142.2923  142.2085  168.3233 C.3     1  UNL1        0.0218
     20 C         141.2188  142.0437  169.3579 C.3     1  UNL1        0.0045
     21 C         143.3658  142.3732  167.2887 C.3     1  UNL1        0.0045
     22 C         143.3036  142.4318  169.4083 C.3     1  UNL1        0.0045
     23 C         142.8030  138.9268  167.2910 C.3     1  UNL1        0.2524
     24 O         141.4277  139.4208  167.6293 O.3     1  UNL1       -0.4721
     25 C         141.2405  145.5906  159.2688 C.3     1  UNL1        0.0722
     26 C         142.0521  144.6027  158.4845 C.3     1  UNL1        0.0173
     27 C         141.3656  143.5736  157.6362 C.3     1  UNL1        0.0014
     28 C         141.0439  142.2243  158.2071 C.3     1  UNL1        0.0007
     29 C         142.1347  141.3796  158.7958 C.3     1  UNL1        0.0087
     30 C         141.9862  140.8207  160.1798 C.3     1  UNL1        0.0446
     31 C         140.7317  140.0938  160.5646 C.ar    1  UNL1       -0.0183
     32 C         139.6448  140.8143  161.3058 C.ar    1  UNL1       -0.0017
     33 C         138.3903  140.0874  161.6905 C.ar    1  UNL1        0.0293
     34 C         138.2228  138.6400  161.3341 C.ar    1  UNL1        0.1401
     35 F         136.9685  137.9132  161.7188 F       1  UNL1       -0.2042
     36 C         139.3099  137.9196  160.5929 C.ar    1  UNL1        0.0293
     37 C         140.5643  138.6464  160.2081 C.ar    1  UNL1       -0.0017
     38 C         143.0922  140.9887  161.1791 C.ar    1  UNL1       -0.0183
     39 C         143.1695  140.0823  162.3717 C.ar    1  UNL1       -0.0017
     40 C         144.2754  140.2503  163.3711 C.ar    1  UNL1        0.0293
     41 C         145.3041  141.3247  163.1778 C.ar    1  UNL1        0.1401
     42 F         146.4100  141.4927  164.1771 F       1  UNL1       -0.2042
     43 C         145.2268  142.2312  161.9851 C.ar    1  UNL1        0.0293
     44 C         144.1209  142.0632  160.9858 C.ar    1  UNL1       -0.0017
@<TRIPOS>BOND
     1    23    24    1
     2    24     9    1
     3     9    10   ar
     4    10    15    1
     5    15    16    1
     6    15    17    1
     7    15    18    1
     8    10    11   ar
     9    11    12   ar
    10    12     1    1
    11     1     2    2
    12     1     3   am
    13     3     4    1
    14     4     5    1
    15     5     6    1
    16     6    25    1
    17    25    26    1
    18    26    27    1
    19    27    28    1
    20    28    29    1
    21    29    30    1
    22    30    31    1
    23    31    32   ar
    24    32    33   ar
    25    33    34   ar
    26    34    35    1
    27    34    36   ar
    28    36    37   ar
    29    30    38    1
    30    38    39   ar
    31    39    40   ar
    32    40    41   ar
    33    41    42    1
    34    41    43   ar
    35    43    44   ar
    36     6     7    1
    37     7     8    1
    38    12    13   ar
    39    13    14   ar
    40    14    19    1
    41    19    20    1
    42    19    21    1
    43    19    22    1
    44    14     9   ar
    45     8     3    1
    46    37    31   ar
    47    44    38   ar
@<TRIPOS>MOLECULE
*****
 44 47 0 0 0
SMALL
GASTEIGER

@<TRIPOS>ATOM
      1 C         138.9108  144.0480  164.6389 C.2     1  UNL1        0.2491
      2 O         137.7217  144.8082  165.1470 O.2     1  UNL1       -0.2699
      3 N         139.5329  144.4192  163.3255 N.am    1  UNL1       -0.2732
      4 C         140.7221  143.6590  162.8174 C.3     1  UNL1        0.1110
      5 C         141.3442  144.0302  161.5040 C.3     1  UNL1        0.0939
      6 N         140.7772  145.1615  160.6986 N.3     1  UNL1       -0.2698
      7 C         139.5881  145.9216  161.2066 C.3     1  UNL1        0.0939
      8 C         138.9659  145.5505  162.5201 C.3     1  UNL1        0.1110
      9 C         140.6117  140.6541  167.0551 C.ar    1  UNL1        0.1306
     10 C         140.9773  142.0698  167.3896 C.ar    1  UNL1        0.0110
     11 C         140.4103  143.2011  166.5842 C.ar    1  UNL1        0.0032
     12 C         139.4777  142.9167  165.4443 C.ar    1  UNL1        0.0532
     13 C         139.1122  141.5009  165.1098 C.ar    1  UNL1        0.0032
     14 C         139.6792  140.3696  165.9152 C.ar    1  UNL1        0.0110
     15 C         141.9098  142.3543  168.5296 C.3     1  UNL1        0.0218
     16 C         140.7480  142.3619  169.4783 C.3     1  UNL1        0.0045
     17 C         143.0717  142.3467  167.5809 C.3     1  UNL1        0.0045
     18 C         142.8424  142.6388  169.6695 C.3     1  UNL1        0.0045
     19 C         139.3136  138.9538  165.5807 C.3     1  UNL1        0.0218
     20 C         140.4567  138.8876  164.6118 C.3     1  UNL1        0.0045
     21 C         138.1704  139.0200  166.5496 C.3     1  UNL1        0.0045
     22 C         138.9480  137.5381  165.2461 C.3     1  UNL1        0.0045
     23 C         142.5698  139.0320  167.5887 C.3     1  UNL1        0.2524
     24 O         141.1787  139.5227  167.8605 O.3     1  UNL1       -0.4721
     25 C         141.3994  145.5326  159.3851 C.3     1  UNL1        0.0722
     26 C         141.4962  144.5154  158.2870 C.3     1  UNL1        0.0173
     27 C         142.4828  143.3904  158.3916 C.3     1  UNL1        0.0014
     28 C         142.0469  141.9823  158.1134 C.3     1  UNL1        0.0007
     29 C         142.6220  140.8482  158.9090 C.3     1  UNL1        0.0087
     30 C         142.2144  140.6529  160.3392 C.3     1  UNL1        0.0446
     31 C         143.1273  141.0915  161.4458 C.ar    1  UNL1       -0.0183
     32 C         142.7809  140.7800  162.8716 C.ar    1  UNL1       -0.0017
     33 C         143.6938  141.2186  163.9782 C.ar    1  UNL1        0.0293
     34 C         144.9530  141.9685  163.6589 C.ar    1  UNL1        0.1401
     35 F         145.8658  142.4070  164.7654 F       1  UNL1       -0.2042
     36 C         145.2993  142.2799  162.2330 C.ar    1  UNL1        0.0293
     37 C         144.3865  141.8414  161.1265 C.ar    1  UNL1       -0.0017
     38 C         140.8940  140.0192  160.6630 C.ar    1  UNL1       -0.0183
     39 C         139.6652  140.8698  160.7910 C.ar    1  UNL1       -0.0017
     40 C         138.3447  140.2360  161.1148 C.ar    1  UNL1        0.0293
     41 C         138.2532  138.7517  161.3105 C.ar    1  UNL1        0.1401
     42 F         136.9327  138.1179  161.6343 F       1  UNL1       -0.2042
     43 C         139.4820  137.9010  161.1825 C.ar    1  UNL1        0.0293
     44 C         140.8025  138.5348  160.8587 C.ar    1  UNL1       -0.0017
@<TRIPOS>BOND
     1    23    24    1
     2    24     9    1
     3     9    10   ar
     4    10    15    1
     5    15    16    1
     6    15    17    1
     7    15    18    1
     8    10    11   ar
     9    11    12   ar
    10    12     1    1
    11     1     2    2
    12     1     3   am
    13     3     4    1
    14     4     5    1
    15     5     6    1
    16     6    25    1
    17    25    26    1
    18    26    27    1
    19    27    28    1
    20    28    29    1
    21    29    30    1
    22    30    31    1
    23    31    32   ar
    24    32    33   ar
    25    33    34   ar
    26    34    35    1
    27    34    36   ar
    28    36    37   ar
    29    30    38    1
    30    38    39   ar
    31    39    40   ar
    32    40    41   ar
    33    41    42    1
    34    41    43   ar
    35    43    44   ar
    36     6     7    1
    37     7     8    1
    38    12    13   ar
    39    13    14   ar
    40    14    19    1
    41    19    20    1
    42    19    21    1
    43    19    22    1
    44    14     9   ar
    45     8     3    1
    46    37    31   ar
    47    44    38   ar
@<TRIPOS>MOLECULE
*****
 44 47 0 0 0
SMALL
GASTEIGER

@<TRIPOS>ATOM
      1 C         143.9132  142.7692  161.8283 C.2     1  UNL1        0.2491
      2 O         144.7415  143.8397  162.4746 O.2     1  UNL1       -0.2699
      3 N         143.4216  141.6082  162.6409 N.am    1  UNL1       -0.2732
      4 C         142.5932  140.5376  161.9946 C.3     1  UNL1        0.1110
      5 C         142.1016  139.3766  162.8072 C.3     1  UNL1        0.0939
      6 N         142.4382  139.2862  164.2661 N.3     1  UNL1       -0.2698
      7 C         143.2665  140.3567  164.9124 C.3     1  UNL1        0.0939
      8 C         143.7582  141.5178  164.0998 C.3     1  UNL1        0.1110
      9 C         142.9033  143.0404  157.4515 C.ar    1  UNL1        0.1306
     10 C         142.1937  143.9167  158.4406 C.ar    1  UNL1        0.0110
     11 C         142.5303  143.8263  159.8996 C.ar    1  UNL1        0.0032
     12 C         143.5766  142.8596  160.3694 C.ar    1  UNL1        0.0532
     13 C         144.2862  141.9833  159.3802 C.ar    1  UNL1        0.0032
     14 C         143.9496  142.0737  157.9213 C.ar    1  UNL1        0.0110
     15 C         141.1474  144.8835  157.9709 C.3     1  UNL1        0.0218
     16 C         142.2221  145.8303  157.5255 C.3     1  UNL1        0.0045
     17 C         140.0726  143.9367  158.4163 C.3     1  UNL1        0.0045
     18 C         140.1011  145.8503  157.5012 C.3     1  UNL1        0.0045
     19 C         144.6593  141.1973  156.9321 C.3     1  UNL1        0.0218
     20 C         143.6352  140.1230  157.1493 C.3     1  UNL1        0.0045
     21 C         145.6833  142.2716  156.7149 C.3     1  UNL1        0.0045
     22 C         145.3689  140.3209  155.9430 C.3     1  UNL1        0.0045
     23 C         141.4183  142.3416  155.4375 C.3     1  UNL1        0.2524
     24 O         142.5667  143.1308  155.9925 O.3     1  UNL1       -0.4721
     25 C         141.9465  138.1251  165.0787 C.3     1  UNL1        0.0722
     26 C         140.8300  137.2672  164.5618 C.3     1  UNL1        0.0173
     27 C         139.4089  137.5934  164.9136 C.3     1  UNL1        0.0014
     28 C         138.7731  138.8443  164.3832 C.3     1  UNL1        0.0007
     29 C         138.2403  139.8757  165.3331 C.3     1  UNL1        0.0087
     30 C         139.0474  141.1027  165.6377 C.3     1  UNL1        0.0446
     31 C         139.8480  141.1786  166.9040 C.ar    1  UNL1       -0.0183
     32 C         140.4430  142.4853  167.3380 C.ar    1  UNL1       -0.0017
     33 C         141.2435  142.5612  168.6043 C.ar    1  UNL1        0.0293
     34 C         141.4490  141.3303  169.4366 C.ar    1  UNL1        0.1401
     35 F         142.2495  141.4061  170.7028 F       1  UNL1       -0.2042
     36 C         140.8540  140.0235  169.0025 C.ar    1  UNL1        0.0293
     37 C         140.0535  139.9477  167.7363 C.ar    1  UNL1       -0.0017
     38 C         139.0541  142.2539  164.6761 C.ar    1  UNL1       -0.0183
     39 C         140.2596  142.5101  163.8212 C.ar    1  UNL1       -0.0017
     40 C         140.2663  143.6614  162.8596 C.ar    1  UNL1        0.0293
     41 C         139.0673  144.5564  162.7530 C.ar    1  UNL1        0.1401
     42 F         139.0739  145.7076  161.7914 F       1  UNL1       -0.2042
     43 C         137.8616  144.3002  163.6079 C.ar    1  UNL1        0.0293
     44 C         137.8550  143.1490  164.5695 C.ar    1  UNL1       -0.0017
@<TRIPOS>BOND
     1    23    24    1
     2    24     9    1
     3     9    10   ar
     4    10    15    1
     5    15    16    1
     6    15    17    1
     7    15    18    1
     8    10    11   ar
     9    11    12   ar
    10    12     1    1
    11     1     2    2
    12     1     3   am
    13     3     4    1
    14     4     5    1
    15     5     6    1
    16     6    25    1
    17    25    26    1
    18    26    27    1
    19    27    28    1
    20    28    29    1
    21    29    30    1
    22    30    31    1
    23    31    32   ar
    24    32    33   ar
    25    33    34   ar
    26    34    35    1
    27    34    36   ar
    28    36    37   ar
    29    30    38    1
    30    38    39   ar
    31    39    40   ar
    32    40    41   ar
    33    41    42    1
    34    41    43   ar
    35    43    44   ar
    36     6     7    1
    37     7     8    1
    38    12    13   ar
    39    13    14   ar
    40    14    19    1
    41    19    20    1
    42    19    21    1
    43    19    22    1
    44    14     9   ar
    45     8     3    1
    46    37    31   ar
    47    44    38   ar
@<TRIPOS>MOLECULE
*****
 44 47 0 0 0
SMALL
GASTEIGER

@<TRIPOS>ATOM
      1 C         143.8828  142.9429  161.6038 C.2     1  UNL1        0.2491
      2 O         144.6395  144.0883  162.2083 O.2     1  UNL1       -0.2699
      3 N         143.4269  141.8054  162.4689 N.am    1  UNL1       -0.2732
      4 C         142.6702  140.6599  161.8644 C.3     1  UNL1        0.1110
      5 C         142.2144  139.5225  162.7294 C.3     1  UNL1        0.0939
      6 N         142.5152  139.5304  164.1990 N.3     1  UNL1       -0.2698
      7 C         143.2719  140.6758  164.8034 C.3     1  UNL1        0.0939
      8 C         143.7278  141.8134  163.9384 C.3     1  UNL1        0.1110
      9 C         142.9803  142.9190  157.1953 C.ar    1  UNL1        0.1306
     10 C         144.0863  142.0640  157.7391 C.ar    1  UNL1        0.0110
     11 C         144.3872  142.0720  159.2086 C.ar    1  UNL1        0.0032
     12 C         143.5820  142.9349  160.1343 C.ar    1  UNL1        0.0532
     13 C         142.4760  143.7899  159.5905 C.ar    1  UNL1        0.0032
     14 C         142.1752  143.7820  158.1210 C.ar    1  UNL1        0.0110
     15 C         144.8916  141.2010  156.8134 C.3     1  UNL1        0.0218
     16 C         145.9777  142.2354  156.7937 C.3     1  UNL1        0.0045
     17 C         143.8055  140.1667  156.8330 C.3     1  UNL1        0.0045
     18 C         145.6967  140.3381  155.8877 C.3     1  UNL1        0.0045
     19 C         141.0691  144.6370  157.5773 C.3     1  UNL1        0.0218
     20 C         142.0169  145.7946  157.4699 C.3     1  UNL1        0.0045
     21 C         140.1214  143.4794  157.6846 C.3     1  UNL1        0.0045
     22 C         139.9632  145.4920  157.0335 C.3     1  UNL1        0.0045
     23 C         143.4255  143.8281  154.8026 C.3     1  UNL1        0.2524
     24 O         142.6795  142.9111  155.7258 O.3     1  UNL1       -0.4721
     25 C         142.0593  138.3929  165.0640 C.3     1  UNL1        0.0722
     26 C         141.0379  137.4222  164.5498 C.3     1  UNL1        0.0173
     27 C         139.5834  137.6365  164.8468 C.3     1  UNL1        0.0014
     28 C         138.8616  138.8098  164.2532 C.3     1  UNL1        0.0007
     29 C         138.2399  139.8396  165.1493 C.3     1  UNL1        0.0087
     30 C         139.0077  141.0742  165.5185 C.3     1  UNL1        0.0446
     31 C         139.0052  142.2612  164.6014 C.ar    1  UNL1       -0.0183
     32 C         140.1637  142.4986  163.6786 C.ar    1  UNL1       -0.0017
     33 C         140.1612  143.6856  162.7615 C.ar    1  UNL1        0.0293
     34 C         139.0001  144.6353  162.7672 C.ar    1  UNL1        0.1401
     35 F         138.9976  145.8223  161.8502 F       1  UNL1       -0.2042
     36 C         137.8416  144.3979  163.6900 C.ar    1  UNL1        0.0293
     37 C         137.8441  143.2109  164.6070 C.ar    1  UNL1       -0.0017
     38 C         139.7780  141.1218  166.8047 C.ar    1  UNL1       -0.0183
     39 C         139.7267  139.9609  167.7531 C.ar    1  UNL1       -0.0017
     40 C         140.4970  140.0085  169.0393 C.ar    1  UNL1        0.0293
     41 C         141.3186  141.2171  169.3771 C.ar    1  UNL1        0.1401
     42 F         142.0889  141.2647  170.6634 F       1  UNL1       -0.2042
     43 C         141.3699  142.3781  168.4287 C.ar    1  UNL1        0.0293
     44 C         140.5996  142.3305  167.1425 C.ar    1  UNL1       -0.0017
@<TRIPOS>BOND
     1    23    24    1
     2    24     9    1
     3     9    10   ar
     4    10    15    1
     5    15    16    1
     6    15    17    1
     7    15    18    1
     8    10    11   ar
     9    11    12   ar
    10    12     1    1
    11     1     2    2
    12     1     3   am
    13     3     4    1
    14     4     5    1
    15     5     6    1
    16     6    25    1
    17    25    26    1
    18    26    27    1
    19    27    28    1
    20    28    29    1
    21    29    30    1
    22    30    31    1
    23    31    32   ar
    24    32    33   ar
    25    33    34   ar
    26    34    35    1
    27    34    36   ar
    28    36    37   ar
    29    30    38    1
    30    38    39   ar
    31    39    40   ar
    32    40    41   ar
    33    41    42    1
    34    41    43   ar
    35    43    44   ar
    36     6     7    1
    37     7     8    1
    38    12    13   ar
    39    13    14   ar
    40    14    19    1
    41    19    20    1
    42    19    21    1
    43    19    22    1
    44    14     9   ar
    45     8     3    1
    46    37    31   ar
    47    44    38   ar
@<TRIPOS>MOLECULE
*****
 44 47 0 0 0
SMALL
GASTEIGER

@<TRIPOS>ATOM
      1 C         140.5294  145.0812  160.2821 C.2     1  UNL1        0.2491
      2 O         139.7229  146.0431  161.1031 O.2     1  UNL1       -0.2699
      3 N         141.7325  144.4121  160.8777 N.am    1  UNL1       -0.2732
      4 C         142.5391  143.4501  160.0566 C.3     1  UNL1        0.1110
      5 C         143.7422  142.7811  160.6522 C.3     1  UNL1        0.0939
      6 N         144.1389  143.0740  162.0688 N.3     1  UNL1       -0.2698
      7 C         143.3324  144.0359  162.8899 C.3     1  UNL1        0.0939
      8 C         142.1292  144.7050  162.2943 C.3     1  UNL1        0.1110
      9 C         139.3394  144.2025  156.0321 C.ar    1  UNL1        0.1306
     10 C         139.1639  143.1556  157.0919 C.ar    1  UNL1        0.0110
     11 C         139.5606  143.4484  158.5085 C.ar    1  UNL1        0.0032
     12 C         140.1327  144.7883  158.8654 C.ar    1  UNL1        0.0532
     13 C         140.3082  145.8352  157.8057 C.ar    1  UNL1        0.0032
     14 C         139.9116  145.5423  156.3891 C.ar    1  UNL1        0.0110
     15 C         138.5918  141.8156  156.7350 C.3     1  UNL1        0.0218
     16 C         139.9600  141.3325  156.3549 C.3     1  UNL1        0.0045
     17 C         137.2235  142.2987  157.1150 C.3     1  UNL1        0.0045
     18 C         138.0196  140.4758  156.3781 C.3     1  UNL1        0.0045
     19 C         140.0871  146.5894  155.3293 C.3     1  UNL1        0.0218
     20 C         138.8510  147.2872  155.8141 C.3     1  UNL1        0.0045
     21 C         141.3232  145.8915  154.8445 C.3     1  UNL1        0.0045
     22 C         140.2626  147.6364  154.2697 C.3     1  UNL1        0.0045
     23 C         137.5523  144.2200  154.1465 C.3     1  UNL1        0.2524
     24 O         138.9428  143.9096  154.6155 O.3     1  UNL1       -0.4721
     25 C         145.3421  142.4049  162.6644 C.3     1  UNL1        0.0722
     26 C         145.2602  141.7929  164.0314 C.3     1  UNL1        0.0173
     27 C         145.1698  140.3032  164.1820 C.3     1  UNL1        0.0014
     28 C         143.8451  139.6564  164.4592 C.3     1  UNL1        0.0007
     29 C         142.5785  140.3117  163.9942 C.3     1  UNL1        0.0087
     30 C         141.7591  141.1244  164.9523 C.3     1  UNL1        0.0446
     31 C         142.0494  141.0676  166.4229 C.ar    1  UNL1       -0.0183
     32 C         141.4518  139.9788  167.2639 C.ar    1  UNL1       -0.0017
     33 C         141.7421  139.9221  168.7345 C.ar    1  UNL1        0.0293
     34 C         142.6300  140.9542  169.3640 C.ar    1  UNL1        0.1401
     35 F         142.9203  140.8974  170.8345 F       1  UNL1       -0.2042
     36 C         143.2277  142.0430  168.5230 C.ar    1  UNL1        0.0293
     37 C         142.9374  142.0997  167.0525 C.ar    1  UNL1       -0.0017
     38 C         140.6494  141.9939  164.4399 C.ar    1  UNL1       -0.0183
     39 C         140.0661  141.7425  163.0811 C.ar    1  UNL1       -0.0017
     40 C         138.9564  142.6120  162.5687 C.ar    1  UNL1        0.0293
     41 C         138.4300  143.7329  163.4152 C.ar    1  UNL1        0.1401
     42 F         137.3203  144.6024  162.9028 F       1  UNL1       -0.2042
     43 C         139.0134  143.9843  164.7741 C.ar    1  UNL1        0.0293
     44 C         140.1231  143.1148  165.2865 C.ar    1  UNL1       -0.0017
@<TRIPOS>BOND
     1    23    24    1
     2    24     9    1
     3     9    10   ar
     4    10    15    1
     5    15    16    1
     6    15    17    1
     7    15    18    1
     8    10    11   ar
     9    11    12   ar
    10    12     1    1
    11     1     2    2
    12     1     3   am
    13     3     4    1
    14     4     5    1
    15     5     6    1
    16     6    25    1
    17    25    26    1
    18    26    27    1
    19    27    28    1
    20    28    29    1
    21    29    30    1
    22    30    31    1
    23    31    32   ar
    24    32    33   ar
    25    33    34   ar
    26    34    35    1
    27    34    36   ar
    28    36    37   ar
    29    30    38    1
    30    38    39   ar
    31    39    40   ar
    32    40    41   ar
    33    41    42    1
    34    41    43   ar
    35    43    44   ar
    36     6     7    1
    37     7     8    1
    38    12    13   ar
    39    13    14   ar
    40    14    19    1
    41    19    20    1
    42    19    21    1
    43    19    22    1
    44    14     9   ar
    45     8     3    1
    46    37    31   ar
    47    44    38   ar
@<TRIPOS>MOLECULE
*****
 44 47 0 0 0
SMALL
GASTEIGER

@<TRIPOS>ATOM
      1 C         140.2952  145.3154  160.5892 C.2     1  UNL1        0.2491
      2 O         139.4042  146.3621  161.1897 O.2     1  UNL1       -0.2699
      3 N         141.4026  144.7158  161.4041 N.am    1  UNL1       -0.2732
      4 C         142.2937  143.6692  160.8036 C.3     1  UNL1        0.1110
      5 C         143.4011  143.0696  161.6185 C.3     1  UNL1        0.0939
      6 N         143.6175  143.5166  163.0339 N.3     1  UNL1       -0.2698
      7 C         142.7265  144.5632  163.6344 C.3     1  UNL1        0.0939
      8 C         141.6190  145.1629  162.8195 C.3     1  UNL1        0.1110
      9 C         139.6459  143.9744  156.3430 C.ar    1  UNL1        0.1306
     10 C         139.4562  143.0060  157.4727 C.ar    1  UNL1        0.0110
     11 C         139.6726  143.4530  158.8881 C.ar    1  UNL1        0.0032
     12 C         140.0788  144.8684  159.1738 C.ar    1  UNL1        0.0532
     13 C         140.2685  145.8368  158.0441 C.ar    1  UNL1        0.0032
     14 C         140.0521  145.3897  156.6287 C.ar    1  UNL1        0.0110
     15 C         139.0500  141.5905  157.1870 C.3     1  UNL1        0.0218
     16 C         137.6116  141.9611  157.3960 C.3     1  UNL1        0.0045
     17 C         140.4884  141.2200  156.9780 C.3     1  UNL1        0.0045
     18 C         138.6439  140.1751  156.9014 C.3     1  UNL1        0.0045
     19 C         140.2419  146.3582  155.4990 C.3     1  UNL1        0.0218
     20 C         138.8957  146.9549  155.7845 C.3     1  UNL1        0.0045
     21 C         141.5881  145.7614  155.2136 C.3     1  UNL1        0.0045
     22 C         140.4316  147.3266  154.3694 C.3     1  UNL1        0.0045
     23 C         138.0882  143.7077  154.2809 C.3     1  UNL1        0.2524
     24 O         139.4295  143.5273  154.9276 O.3     1  UNL1       -0.4721
     25 C         144.7249  142.9169  163.8488 C.3     1  UNL1        0.0722
     26 C         144.6812  141.4642  164.2199 C.3     1  UNL1        0.0173
     27 C         143.4794  140.9056  164.9224 C.3     1  UNL1        0.0014
     28 C         143.5450  139.5475  165.5561 C.3     1  UNL1        0.0007
     29 C         142.5794  139.1798  166.6434 C.3     1  UNL1        0.0087
     30 C         141.1874  139.7384  166.6307 C.3     1  UNL1        0.0446
     31 C         140.2634  139.4239  165.4917 C.ar    1  UNL1       -0.0183
     32 C         140.2480  138.0471  164.8966 C.ar    1  UNL1       -0.0017
     33 C         139.3239  137.7326  163.7576 C.ar    1  UNL1        0.0293
     34 C         138.4153  138.7950  163.2137 C.ar    1  UNL1        0.1401
     35 F         137.4913  138.4805  162.0747 F       1  UNL1       -0.2042
     36 C         138.4307  140.1718  163.8088 C.ar    1  UNL1        0.0293
     37 C         139.3548  140.4863  164.9478 C.ar    1  UNL1       -0.0017
     38 C         140.7194  140.6116  167.7570 C.ar    1  UNL1       -0.0183
     39 C         141.1914  142.0323  167.8506 C.ar    1  UNL1       -0.0017
     40 C         140.7233  142.9055  168.9769 C.ar    1  UNL1        0.0293
     41 C         139.7833  142.3579  170.0096 C.ar    1  UNL1        0.1401
     42 F         139.3153  143.2311  171.1359 F       1  UNL1       -0.2042
     43 C         139.3112  140.9372  169.9160 C.ar    1  UNL1        0.0293
     44 C         139.7793  140.0640  168.7897 C.ar    1  UNL1       -0.0017
@<TRIPOS>BOND
     1    23    24    1
     2    24     9    1
     3     9    10   ar
     4    10    15    1
     5    15    16    1
     6    15    17    1
     7    15    18    1
     8    10    11   ar
     9    11    12   ar
    10    12     1    1
    11     1     2    2
    12     1     3   am
    13     3     4    1
    14     4     5    1
    15     5     6    1
    16     6    25    1
    17    25    26    1
    18    26    27    1
    19    27    28    1
    20    28    29    1
    21    29    30    1
    22    30    31    1
    23    31    32   ar
    24    32    33   ar
    25    33    34   ar
    26    34    35    1
    27    34    36   ar
    28    36    37   ar
    29    30    38    1
    30    38    39   ar
    31    39    40   ar
    32    40    41   ar
    33    41    42    1
    34    41    43   ar
    35    43    44   ar
    36     6     7    1
    37     7     8    1
    38    12    13   ar
    39    13    14   ar
    40    14    19    1
    41    19    20    1
    42    19    21    1
    43    19    22    1
    44    14     9   ar
    45     8     3    1
    46    37    31   ar
    47    44    38   ar
@<TRIPOS>MOLECULE
*****
 44 47 0 0 0
SMALL
GASTEIGER

@<TRIPOS>ATOM
      1 C         142.9570  138.5337  160.8082 C.2     1  UNL1        0.2491
      2 O         144.0979  137.9370  161.5778 O.2     1  UNL1       -0.2699
      3 N         141.7349  139.0158  161.5321 N.am    1  UNL1       -0.2732
      4 C         140.5939  139.6124  160.7625 C.3     1  UNL1        0.1110
      5 C         139.3718  140.0945  161.4863 C.3     1  UNL1        0.0939
      6 N         139.2906  139.9800  162.9797 N.3     1  UNL1       -0.2698
      7 C         140.4315  139.3834  163.7493 C.3     1  UNL1        0.0939
      8 C         141.6537  138.9012  163.0255 C.3     1  UNL1        0.1110
      9 C         143.2007  138.8772  156.3280 C.ar    1  UNL1        0.1306
     10 C         142.7487  137.5934  156.9583 C.ar    1  UNL1        0.0110
     11 C         142.6675  137.4788  158.4517 C.ar    1  UNL1        0.0032
     12 C         143.0383  138.6482  159.3148 C.ar    1  UNL1        0.0532
     13 C         143.4902  139.9321  158.6845 C.ar    1  UNL1        0.0032
     14 C         143.5715  140.0466  157.1911 C.ar    1  UNL1        0.0110
     15 C         142.3779  136.4239  156.0951 C.3     1  UNL1        0.0218
     16 C         143.8269  136.0570  155.9697 C.3     1  UNL1        0.0045
     17 C         140.9289  136.7908  156.2205 C.3     1  UNL1        0.0045
     18 C         142.0071  135.2545  155.2320 C.3     1  UNL1        0.0045
     19 C         144.0235  141.3306  156.5609 C.3     1  UNL1        0.0218
     20 C         145.4125  140.7790  156.4334 C.3     1  UNL1        0.0045
     21 C         142.6345  141.8822  156.6884 C.3     1  UNL1        0.0045
     22 C         144.4755  142.6145  155.9306 C.3     1  UNL1        0.0045
     23 C         142.0845  139.4407  154.0506 C.3     1  UNL1        0.2524
     24 O         143.2819  138.9918  154.8346 O.3     1  UNL1       -0.4721
     25 C         138.0684  140.4621  163.7035 C.3     1  UNL1        0.0722
     26 C         137.3363  141.6759  163.2130 C.3     1  UNL1        0.0173
     27 C         137.9536  143.0349  163.3611 C.3     1  UNL1        0.0014
     28 C         138.1776  143.6121  164.7275 C.3     1  UNL1        0.0007
     29 C         139.5654  143.9648  165.1743 C.3     1  UNL1        0.0087
     30 C         140.5054  142.8860  165.6240 C.3     1  UNL1        0.0446
     31 C         140.2655  142.1758  166.9234 C.ar    1  UNL1       -0.0183
     32 C         139.7404  140.7707  166.9243 C.ar    1  UNL1       -0.0017
     33 C         139.5005  140.0605  168.2236 C.ar    1  UNL1        0.0293
     34 C         139.7858  140.7555  169.5220 C.ar    1  UNL1        0.1401
     35 F         139.5459  140.0454  170.8212 F       1  UNL1       -0.2042
     36 C         140.3109  142.1606  169.5210 C.ar    1  UNL1        0.0293
     37 C         140.5508  142.8707  168.2217 C.ar    1  UNL1       -0.0017
     38 C         141.6854  142.5172  164.7745 C.ar    1  UNL1       -0.0183
     39 C         141.6541  142.7713  163.2965 C.ar    1  UNL1       -0.0017
     40 C         142.8341  142.4025  162.4470 C.ar    1  UNL1        0.0293
     41 C         144.0453  141.7797  163.0754 C.ar    1  UNL1        0.1401
     42 F         145.2253  141.4110  162.2259 F       1  UNL1       -0.2042
     43 C         144.0766  141.5256  164.5535 C.ar    1  UNL1        0.0293
     44 C         142.8967  141.8944  165.4030 C.ar    1  UNL1       -0.0017
@<TRIPOS>BOND
     1    23    24    1
     2    24     9    1
     3     9    10   ar
     4    10    15    1
     5    15    16    1
     6    15    17    1
     7    15    18    1
     8    10    11   ar
     9    11    12   ar
    10    12     1    1
    11     1     2    2
    12     1     3   am
    13     3     4    1
    14     4     5    1
    15     5     6    1
    16     6    25    1
    17    25    26    1
    18    26    27    1
    19    27    28    1
    20    28    29    1
    21    29    30    1
    22    30    31    1
    23    31    32   ar
    24    32    33   ar
    25    33    34   ar
    26    34    35    1
    27    34    36   ar
    28    36    37   ar
    29    30    38    1
    30    38    39   ar
    31    39    40   ar
    32    40    41   ar
    33    41    42    1
    34    41    43   ar
    35    43    44   ar
    36     6     7    1
    37     7     8    1
    38    12    13   ar
    39    13    14   ar
    40    14    19    1
    41    19    20    1
    42    19    21    1
    43    19    22    1
    44    14     9   ar
    45     8     3    1
    46    37    31   ar
    47    44    38   ar
@<TRIPOS>MOLECULE
*****
 44 47 0 0 0
SMALL
GASTEIGER

@<TRIPOS>ATOM
      1 C         139.2146  144.0619  164.6504 C.2     1  UNL1        0.2491
      2 O         138.1147  144.8810  165.2581 O.2     1  UNL1       -0.2699
      3 N         139.7419  144.4066  163.2891 N.am    1  UNL1       -0.2732
      4 C         140.8418  143.5876  162.6813 C.3     1  UNL1        0.1110
      5 C         141.3691  143.9323  161.3201 C.3     1  UNL1        0.0939
      6 N         140.7966  145.0960  160.5665 N.3     1  UNL1       -0.2698
      7 C         139.6967  145.9150  161.1742 C.3     1  UNL1        0.0939
      8 C         139.1693  145.5704  162.5355 C.3     1  UNL1        0.1110
      9 C         140.9323  140.5707  166.9111 C.ar    1  UNL1        0.1306
     10 C         139.9263  140.3380  165.8231 C.ar    1  UNL1        0.0110
     11 C         139.3537  141.5017  165.0695 C.ar    1  UNL1        0.0032
     12 C         139.7871  142.8982  165.4039 C.ar    1  UNL1        0.0532
     13 C         140.7931  143.1310  166.4919 C.ar    1  UNL1        0.0032
     14 C         141.3657  141.9672  167.2455 C.ar    1  UNL1        0.0110
     15 C         139.4928  138.9414  165.4886 C.3     1  UNL1        0.0218
     16 C         140.5842  138.8480  164.4638 C.3     1  UNL1        0.0045
     17 C         138.4015  139.0348  166.5134 C.3     1  UNL1        0.0045
     18 C         139.0593  137.5449  165.1542 C.3     1  UNL1        0.0045
     19 C         142.3718  142.2001  168.3335 C.3     1  UNL1        0.0218
     20 C         143.4539  142.3359  167.3037 C.3     1  UNL1        0.0045
     21 C         141.2896  142.0642  169.3632 C.3     1  UNL1        0.0045
     22 C         143.3778  142.4329  169.4214 C.3     1  UNL1        0.0045
     23 C         142.8697  138.8887  167.3202 C.3     1  UNL1        0.2524
     24 O         141.5049  139.4070  167.6646 O.3     1  UNL1       -0.4721
     25 C         141.3239  145.4407  159.2052 C.3     1  UNL1        0.0722
     26 C         142.1627  144.4504  158.4530 C.3     1  UNL1        0.0173
     27 C         141.5797  143.7042  157.2897 C.3     1  UNL1        0.0014
     28 C         141.6008  142.2044  157.2741 C.3     1  UNL1        0.0007
     29 C         141.9101  141.4456  158.5304 C.3     1  UNL1        0.0087
     30 C         143.3219  141.0388  158.8325 C.3     1  UNL1        0.0446
     31 C         144.3724  141.1263  157.7653 C.ar    1  UNL1       -0.0183
     32 C         145.3430  142.2699  157.7603 C.ar    1  UNL1       -0.0017
     33 C         146.3934  142.3574  156.6930 C.ar    1  UNL1        0.0293
     34 C         146.4732  141.3013  155.6309 C.ar    1  UNL1        0.1401
     35 F         147.5236  141.3888  154.5637 F       1  UNL1       -0.2042
     36 C         145.5026  140.1576  155.6359 C.ar    1  UNL1        0.0293
     37 C         144.4522  140.0702  156.7031 C.ar    1  UNL1       -0.0017
     38 C         143.6833  140.5444  160.2018 C.ar    1  UNL1       -0.0183
     39 C         144.1867  141.5056  161.2376 C.ar    1  UNL1       -0.0017
     40 C         144.5481  141.0112  162.6069 C.ar    1  UNL1        0.0293
     41 C         144.4061  139.5557  162.9405 C.ar    1  UNL1        0.1401
     42 F         144.7675  139.0614  164.3098 F       1  UNL1       -0.2042
     43 C         143.9028  138.5945  161.9047 C.ar    1  UNL1        0.0293
     44 C         143.5414  139.0888  160.5354 C.ar    1  UNL1       -0.0017
@<TRIPOS>BOND
     1    23    24    1
     2    24     9    1
     3     9    10   ar
     4    10    15    1
     5    15    16    1
     6    15    17    1
     7    15    18    1
     8    10    11   ar
     9    11    12   ar
    10    12     1    1
    11     1     2    2
    12     1     3   am
    13     3     4    1
    14     4     5    1
    15     5     6    1
    16     6    25    1
    17    25    26    1
    18    26    27    1
    19    27    28    1
    20    28    29    1
    21    29    30    1
    22    30    31    1
    23    31    32   ar
    24    32    33   ar
    25    33    34   ar
    26    34    35    1
    27    34    36   ar
    28    36    37   ar
    29    30    38    1
    30    38    39   ar
    31    39    40   ar
    32    40    41   ar
    33    41    42    1
    34    41    43   ar
    35    43    44   ar
    36     6     7    1
    37     7     8    1
    38    12    13   ar
    39    13    14   ar
    40    14    19    1
    41    19    20    1
    42    19    21    1
    43    19    22    1
    44    14     9   ar
    45     8     3    1
    46    37    31   ar
    47    44    38   ar
