@<TRIPOS>MOLECULE
*****
 34 38 0 0 0
SMALL
GASTEIGER

@<TRIPOS>ATOM
      1 C         140.9535  140.3364  166.8988 C.2     1  UNL1        0.3308
      2 N         142.0789  140.7246  165.9863 N.2     1  UNL1       -0.0045
      3 C         143.0287  141.8137  166.3882 C.2     1  UNL1        0.3072
      4 C         142.8532  142.5147  167.7027 C.3     1  UNL1        0.1631
      5 C         141.7277  142.1265  168.6153 C.2     1  UNL1        0.0844
      6 N         141.5522  142.8275  169.9297 N.2     1  UNL1       -0.2296
      7 C         140.4268  142.4393  170.8422 C.2     1  UNL1        0.1880
      8 N         139.4769  141.3501  170.4403 N.am    1  UNL1       -0.1535
      9 C         139.6525  140.6491  169.1259 C.2     1  UNL1        0.2788
     10 O         138.7027  139.5600  168.7240 O.2     1  UNL1       -0.2677
     11 C         140.7779  141.0373  168.2134 C.2     1  UNL1        0.1515
     12 N         140.0037  139.2472  166.4969 N.pl3   1  UNL1       -0.2134
     13 H         139.4249  138.8248  167.1721 H       1  UNL1        0.2928
     14 C         137.5823  139.8340  160.5158 C.3     1  UNL1        0.0327
     15 C         137.9618  139.9290  161.9639 C.2     1  UNL1       -0.0015
     16 C         137.4181  140.9151  162.9550 C.2     1  UNL1        0.0944
     17 N         138.0718  140.6501  164.2787 N.2     1  UNL1       -0.2442
     18 C         139.0195  139.5003  164.1058 C.2     1  UNL1        0.1052
     19 C         139.9356  138.8016  165.0663 C.3     1  UNL1        0.2198
     20 C         140.7837  137.6571  164.5961 C.2     1  UNL1        0.0258
     21 C         140.7157  137.2115  163.1654 C.2     1  UNL1       -0.0002
     22 C         139.7995  137.9102  162.2050 C.2     1  UNL1        0.0009
     23 C         138.9515  139.0546  162.6751 C.2     1  UNL1        0.0153
     24 N         144.1542  142.2019  165.4756 N.pl3   1  UNL1       -0.2241
     25 H         145.0862  142.0323  165.7438 H       1  UNL1        0.2918
     26 C         143.8596  142.8484  164.1546 C.3     1  UNL1        0.1755
     27 C         142.6193  143.6746  163.9839 C.3     1  UNL1        0.0799
     28 C         142.3248  144.3211  162.6628 C.3     1  UNL1        0.1464
     29 O         143.2705  144.1414  161.5124 O.3     1  UNL1       -0.3521
     30 C         144.5108  143.3153  161.6831 C.3     1  UNL1        0.1616
     31 C         144.8053  142.6688  163.0043 C.3     1  UNL1        0.1239
     32 N         146.0456  141.8426  163.1750 N.3     1  UNL1       -0.3170
     33 H         146.5678  141.8281  162.2989 H       1  UNL1        0.1190
     34 H         145.7869  140.8901  163.4324 H       1  UNL1        0.1190
@<TRIPOS>BOND
     1    14    15    1
     2    15    16    2
     3    16    17    1
     4    17    18    2
     5    18    19    1
     6    19    12    1
     7    12     1    1
     8     1     2    1
     9     2     3    2
    10     3    24    1
    11    26    24    1
    12    26    27    1
    13    27    28    1
    14    28    29    1
    15    29    30    1
    16    30    31    1
    17    31    32    1
    18     3     4    1
    19     4     5    1
    20     5     6    2
    21     6     7    1
    22     7     8    2
    23     8     9    1
    24     9    10    2
    25     9    11    1
    26    19    20    1
    27    20    21    2
    28    21    22    1
    29    22    23    2
    30    23    15    1
    31    23    18    1
    32    11     1    2
    33    31    26    1
    34    11     5    1
    35    12    13    1
    36    24    25    1
    37    32    33    1
    38    32    34    1
@<TRIPOS>MOLECULE
*****
 34 38 0 0 0
SMALL
GASTEIGER

@<TRIPOS>ATOM
      1 C         140.9238  140.8454  166.8654 C.2     1  UNL1        0.3308
      2 N         141.9984  141.5026  166.0511 N.2     1  UNL1       -0.0045
      3 C         143.0996  142.2589  166.7333 C.2     1  UNL1        0.3072
      4 C         143.1262  142.3580  168.2298 C.3     1  UNL1        0.1631
      5 C         142.0514  141.7008  169.0441 C.2     1  UNL1        0.0844
      6 N         142.0779  141.7999  170.5406 N.2     1  UNL1       -0.2296
      7 C         141.0032  141.1427  171.3549 C.2     1  UNL1        0.1880
      8 N         139.9020  140.3864  170.6727 N.am    1  UNL1       -0.1535
      9 C         139.8755  140.2873  169.1762 C.2     1  UNL1        0.2788
     10 O         138.7743  139.5310  168.4940 O.2     1  UNL1       -0.2677
     11 C         140.9502  140.9445  168.3620 C.2     1  UNL1        0.1515
     12 N         139.8226  140.0892  166.1832 N.pl3   1  UNL1       -0.2134
     13 H         139.5855  139.1834  166.4877 H       1  UNL1        0.2928
     14 C         137.1607  139.6686  160.2910 C.3     1  UNL1        0.0327
     15 C         137.8469  139.4774  161.6110 C.2     1  UNL1       -0.0015
     16 C         138.4790  138.2081  162.1004 C.2     1  UNL1        0.0944
     17 N         139.0443  138.4682  163.4653 N.2     1  UNL1       -0.2442
     18 C         138.7617  139.8981  163.8193 C.2     1  UNL1        0.1052
     19 C         139.0825  140.7128  165.0372 C.3     1  UNL1        0.2198
     20 C         138.6633  142.1513  165.1091 C.2     1  UNL1        0.0258
     21 C         137.9233  142.7750  163.9631 C.2     1  UNL1       -0.0002
     22 C         137.6025  141.9603  162.7452 C.2     1  UNL1        0.0009
     23 C         138.0216  140.5219  162.6733 C.2     1  UNL1        0.0153
     24 N         144.1744  142.9162  165.9190 N.pl3   1  UNL1       -0.2241
     25 H         145.0568  143.0919  166.3186 H       1  UNL1        0.2918
     26 C         143.9046  143.3056  164.4958 C.3     1  UNL1        0.1755
     27 C         142.7887  144.2558  164.1768 C.3     1  UNL1        0.0799
     28 C         142.5190  144.6452  162.7536 C.3     1  UNL1        0.1464
     29 O         143.3652  144.0844  161.6493 O.3     1  UNL1       -0.3521
     30 C         144.4811  143.1342  161.9682 C.3     1  UNL1        0.1616
     31 C         144.7508  142.7448  163.3915 C.3     1  UNL1        0.1239
     32 N         145.8668  141.7945  163.7105 N.3     1  UNL1       -0.3170
     33 H         146.3331  141.5157  162.8473 H       1  UNL1        0.1190
     34 H         145.4881  140.9688  164.1744 H       1  UNL1        0.1190
@<TRIPOS>BOND
     1    14    15    1
     2    15    16    2
     3    16    17    1
     4    17    18    2
     5    18    19    1
     6    19    12    1
     7    12     1    1
     8     1     2    1
     9     2     3    2
    10     3    24    1
    11    26    24    1
    12    26    27    1
    13    27    28    1
    14    28    29    1
    15    29    30    1
    16    30    31    1
    17    31    32    1
    18     3     4    1
    19     4     5    1
    20     5     6    2
    21     6     7    1
    22     7     8    2
    23     8     9    1
    24     9    10    2
    25     9    11    1
    26    19    20    1
    27    20    21    2
    28    21    22    1
    29    22    23    2
    30    23    15    1
    31    23    18    1
    32    11     1    2
    33    31    26    1
    34    11     5    1
    35    12    13    1
    36    24    25    1
    37    32    33    1
    38    32    34    1
@<TRIPOS>MOLECULE
*****
 34 38 0 0 0
SMALL
GASTEIGER

@<TRIPOS>ATOM
      1 C         141.8444  141.2256  166.7536 C.2     1  UNL1        0.3308
      2 N         141.0593  140.5101  165.6945 N.2     1  UNL1       -0.0045
      3 C         139.8934  139.6482  166.0787 C.2     1  UNL1        0.3072
      4 C         139.5125  139.5017  167.5221 C.3     1  UNL1        0.1631
      5 C         140.2975  140.2171  168.5813 C.2     1  UNL1        0.0844
      6 N         139.9166  140.0706  170.0247 N.2     1  UNL1       -0.2296
      7 C         140.7017  140.7860  171.0839 C.2     1  UNL1        0.1880
      8 N         141.8677  141.6480  170.6996 N.am    1  UNL1       -0.1535
      9 C         142.2485  141.7945  169.2562 C.2     1  UNL1        0.2788
     10 O         143.4145  142.6564  168.8720 O.2     1  UNL1       -0.2677
     11 C         141.4635  141.0791  168.1971 C.2     1  UNL1        0.1515
     12 N         143.0103  142.0875  166.3694 N.pl3   1  UNL1       -0.2134
     13 H         143.7930  142.1501  166.9632 H       1  UNL1        0.2928
     14 C         139.9202  145.8944  162.1339 C.3     1  UNL1        0.0327
     15 C         140.3801  145.0310  163.2710 C.2     1  UNL1       -0.0015
     16 C         139.5749  144.6665  164.4830 C.2     1  UNL1        0.0944
     17 N         140.4230  143.7907  165.3568 N.2     1  UNL1       -0.2442
     18 C         141.7524  143.6139  164.6849 C.2     1  UNL1        0.1052
     19 C         142.9837  142.8540  165.0803 C.3     1  UNL1        0.2198
     20 C         144.1885  142.8606  164.1867 C.2     1  UNL1        0.0258
     21 C         144.1619  143.6272  162.8976 C.2     1  UNL1       -0.0002
     22 C         142.9306  144.3871  162.5022 C.2     1  UNL1        0.0009
     23 C         141.7259  144.3805  163.3958 C.2     1  UNL1        0.0153
     24 N         139.1083  138.9328  165.0195 N.pl3   1  UNL1       -0.2241
     25 H         138.9967  137.9557  165.0650 H       1  UNL1        0.2918
     26 C         138.4933  139.7061  163.8909 C.3     1  UNL1        0.1755
     27 C         138.0803  141.1333  164.0970 C.3     1  UNL1        0.0799
     28 C         137.4652  141.9066  162.9685 C.3     1  UNL1        0.1464
     29 O         137.2632  141.2526  161.6336 O.3     1  UNL1       -0.3521
     30 C         137.6762  139.8254  161.4275 C.3     1  UNL1        0.1616
     31 C         138.2913  139.0521  162.5562 C.3     1  UNL1        0.1239
     32 N         138.7043  137.6249  162.3500 N.3     1  UNL1       -0.3170
     33 H         138.4955  137.3456  161.3915 H       1  UNL1        0.1190
     34 H         138.1925  137.0259  162.9979 H       1  UNL1        0.1190
@<TRIPOS>BOND
     1    14    15    1
     2    15    16    2
     3    16    17    1
     4    17    18    2
     5    18    19    1
     6    19    12    1
     7    12     1    1
     8     1     2    1
     9     2     3    2
    10     3    24    1
    11    26    24    1
    12    26    27    1
    13    27    28    1
    14    28    29    1
    15    29    30    1
    16    30    31    1
    17    31    32    1
    18     3     4    1
    19     4     5    1
    20     5     6    2
    21     6     7    1
    22     7     8    2
    23     8     9    1
    24     9    10    2
    25     9    11    1
    26    19    20    1
    27    20    21    2
    28    21    22    1
    29    22    23    2
    30    23    15    1
    31    23    18    1
    32    11     1    2
    33    31    26    1
    34    11     5    1
    35    12    13    1
    36    24    25    1
    37    32    33    1
    38    32    34    1
@<TRIPOS>MOLECULE
*****
 34 38 0 0 0
SMALL
GASTEIGER

@<TRIPOS>ATOM
      1 C         141.3538  141.5929  166.3312 C.2     1  UNL1        0.3308
      2 N         140.2466  141.0787  165.4596 N.2     1  UNL1       -0.0045
      3 C         139.2203  140.1422  166.0251 C.2     1  UNL1        0.3072
      4 C         139.3012  139.7200  167.4621 C.3     1  UNL1        0.1631
      5 C         140.4084  140.2343  168.3338 C.2     1  UNL1        0.0844
      6 N         140.4892  139.8121  169.7709 N.2     1  UNL1       -0.2296
      7 C         141.5964  140.3263  170.6424 C.2     1  UNL1        0.1880
      8 N         142.6227  141.2627  170.0770 N.am    1  UNL1       -0.1535
      9 C         142.5418  141.6849  168.6399 C.2     1  UNL1        0.2788
     10 O         143.5682  142.6214  168.0745 O.2     1  UNL1       -0.2677
     11 C         141.4347  141.1707  167.7683 C.2     1  UNL1        0.1515
     12 N         142.3801  142.5294  165.7657 N.pl3   1  UNL1       -0.2134
     13 H         142.5158  143.4152  166.1733 H       1  UNL1        0.2928
     14 C         143.7319  142.8988  159.4398 C.3     1  UNL1        0.0327
     15 C         143.2038  143.0123  160.8392 C.2     1  UNL1       -0.0015
     16 C         142.0625  143.8783  161.2834 C.2     1  UNL1        0.0944
     17 N         141.8777  143.6810  162.7588 N.2     1  UNL1       -0.2442
     18 C         142.9048  142.6929  163.2265 C.2     1  UNL1        0.1052
     19 C         143.1997  142.1161  164.5794 C.3     1  UNL1        0.2198
     20 C         144.3142  141.1260  164.7459 C.2     1  UNL1        0.0258
     21 C         145.1338  140.7128  163.5596 C.2     1  UNL1       -0.0002
     22 C         144.8389  141.2896  162.2067 C.2     1  UNL1        0.0009
     23 C         143.7244  142.2796  162.0401 C.2     1  UNL1        0.0153
     24 N         138.1131  139.6280  165.1534 N.pl3   1  UNL1       -0.2241
     25 H         137.2219  139.4610  165.5369 H       1  UNL1        0.2918
     26 C         138.3638  139.3682  163.6976 C.3     1  UNL1        0.1755
     27 C         139.2657  138.2444  163.2807 C.3     1  UNL1        0.0799
     28 C         139.5164  137.9846  161.8248 C.3     1  UNL1        0.1464
     29 O         138.8653  138.8486  160.7857 O.3     1  UNL1       -0.3521
     30 C         137.9634  139.9724  161.2026 C.3     1  UNL1        0.1616
     31 C         137.7127  140.2321  162.6586 C.3     1  UNL1        0.1239
     32 N         136.8108  141.3559  163.0755 N.3     1  UNL1       -0.3170
     33 H         136.4581  141.8343  162.2465 H       1  UNL1        0.1190
     34 H         137.3335  142.0153  163.6520 H       1  UNL1        0.1190
@<TRIPOS>BOND
     1    14    15    1
     2    15    16    2
     3    16    17    1
     4    17    18    2
     5    18    19    1
     6    19    12    1
     7    12     1    1
     8     1     2    1
     9     2     3    2
    10     3    24    1
    11    26    24    1
    12    26    27    1
    13    27    28    1
    14    28    29    1
    15    29    30    1
    16    30    31    1
    17    31    32    1
    18     3     4    1
    19     4     5    1
    20     5     6    2
    21     6     7    1
    22     7     8    2
    23     8     9    1
    24     9    10    2
    25     9    11    1
    26    19    20    1
    27    20    21    2
    28    21    22    1
    29    22    23    2
    30    23    15    1
    31    23    18    1
    32    11     1    2
    33    31    26    1
    34    11     5    1
    35    12    13    1
    36    24    25    1
    37    32    33    1
    38    32    34    1
@<TRIPOS>MOLECULE
*****
 34 38 0 0 0
SMALL
GASTEIGER

@<TRIPOS>ATOM
      1 C         141.1940  141.9022  167.0164 C.2     1  UNL1        0.3308
      2 N         141.7796  140.9595  166.0073 N.2     1  UNL1       -0.0045
      3 C         142.5520  139.7574  166.4637 C.2     1  UNL1        0.3072
      4 C         142.7388  139.4980  167.9292 C.3     1  UNL1        0.1631
      5 C         142.1531  140.4407  168.9384 C.2     1  UNL1        0.0844
      6 N         142.3399  140.1813  170.4039 N.2     1  UNL1       -0.2296
      7 C         141.7543  141.1240  171.4130 C.2     1  UNL1        0.1880
      8 N         140.9819  142.3261  170.9566 N.am    1  UNL1       -0.1535
      9 C         140.7951  142.5855  169.4910 C.2     1  UNL1        0.2788
     10 O         140.0227  143.7876  169.0346 O.2     1  UNL1       -0.2677
     11 C         141.3807  141.6428  168.4820 C.2     1  UNL1        0.1515
     12 N         140.4216  143.1043  166.5599 N.pl3   1  UNL1       -0.2134
     13 H         140.2324  143.8364  167.1904 H       1  UNL1        0.2928
     14 C         141.3874  144.7126  160.3582 C.3     1  UNL1        0.0327
     15 C         141.4429  144.4438  161.8328 C.2     1  UNL1       -0.0015
     16 C         142.6049  144.7281  162.7378 C.2     1  UNL1        0.0944
     17 N         142.2263  144.3034  164.1257 N.2     1  UNL1       -0.2442
     18 C         140.8303  143.7567  164.0785 C.2     1  UNL1        0.1052
     19 C         139.9374  143.1910  165.1429 C.3     1  UNL1        0.2198
     20 C         138.5604  142.7121  164.7901 C.2     1  UNL1        0.0258
     21 C         138.0762  142.7989  163.3731 C.2     1  UNL1       -0.0002
     22 C         138.9691  143.3645  162.3088 C.2     1  UNL1        0.0009
     23 C         140.3461  143.8434  162.6614 C.2     1  UNL1        0.0153
     24 N         143.1376  138.8146  165.4545 N.pl3   1  UNL1       -0.2241
     25 H         144.0618  138.4922  165.5603 H       1  UNL1        0.2918
     26 C         142.3151  138.3631  164.2842 C.3     1  UNL1        0.1755
     27 C         140.9068  137.8917  164.4946 C.3     1  UNL1        0.0799
     28 C         140.0843  137.4402  163.3243 C.3     1  UNL1        0.1464
     29 O         140.6702  137.4600  161.9436 O.3     1  UNL1       -0.3521
     30 C         142.0786  137.9315  161.7332 C.3     1  UNL1        0.1616
     31 C         142.9010  138.3830  162.9036 C.3     1  UNL1        0.1239
     32 N         144.3094  138.8544  162.6932 N.3     1  UNL1       -0.3170
     33 H         144.5411  138.8015  161.7013 H       1  UNL1        0.1190
     34 H         144.9488  138.2627  163.2237 H       1  UNL1        0.1190
@<TRIPOS>BOND
     1    14    15    1
     2    15    16    2
     3    16    17    1
     4    17    18    2
     5    18    19    1
     6    19    12    1
     7    12     1    1
     8     1     2    1
     9     2     3    2
    10     3    24    1
    11    26    24    1
    12    26    27    1
    13    27    28    1
    14    28    29    1
    15    29    30    1
    16    30    31    1
    17    31    32    1
    18     3     4    1
    19     4     5    1
    20     5     6    2
    21     6     7    1
    22     7     8    2
    23     8     9    1
    24     9    10    2
    25     9    11    1
    26    19    20    1
    27    20    21    2
    28    21    22    1
    29    22    23    2
    30    23    15    1
    31    23    18    1
    32    11     1    2
    33    31    26    1
    34    11     5    1
    35    12    13    1
    36    24    25    1
    37    32    33    1
    38    32    34    1
@<TRIPOS>MOLECULE
*****
 34 38 0 0 0
SMALL
GASTEIGER

@<TRIPOS>ATOM
      1 C         141.6551  140.0860  165.2711 C.2     1  UNL1        0.3308
      2 N         142.5054  139.5484  164.1585 N.2     1  UNL1       -0.0045
      3 C         142.1061  138.2871  163.4516 C.2     1  UNL1        0.3072
      4 C         140.8564  137.5634  163.8573 C.3     1  UNL1        0.1631
      5 C         140.0060  138.1010  164.9699 C.2     1  UNL1        0.0844
      6 N         138.7564  137.3774  165.3756 N.2     1  UNL1       -0.2296
      7 C         137.9061  137.9150  166.4882 C.2     1  UNL1        0.1880
      8 N         138.3054  139.1763  167.1951 N.am    1  UNL1       -0.1535
      9 C         139.5551  139.8999  166.7894 C.2     1  UNL1        0.2788
     10 O         139.9544  141.1612  167.4963 O.2     1  UNL1       -0.2677
     11 C         140.4054  139.3623  165.6768 C.2     1  UNL1        0.1515
     12 N         142.0545  141.3472  165.9780 N.pl3   1  UNL1       -0.2134
     13 H         142.1446  141.3547  166.9583 H       1  UNL1        0.2928
     14 C         139.9816  146.1205  162.1179 C.3     1  UNL1        0.0327
     15 C         140.1769  144.9211  162.9972 C.2     1  UNL1       -0.0015
     16 C         139.1195  143.9301  163.3843 C.2     1  UNL1        0.0944
     17 N         139.7529  142.8986  164.2701 N.2     1  UNL1       -0.2442
     18 C         141.2018  143.2520  164.4305 C.2     1  UNL1        0.1052
     19 C         142.3165  142.5972  165.1912 C.3     1  UNL1        0.2198
     20 C         143.6932  143.1923  165.1652 C.2     1  UNL1        0.0258
     21 C         143.9552  144.4422  164.3785 C.2     1  UNL1       -0.0002
     22 C         142.8405  145.0971  163.6178 C.2     1  UNL1        0.0009
     23 C         141.4639  144.5020  163.6437 C.2     1  UNL1        0.0153
     24 N         142.9564  137.7495  162.3389 N.pl3   1  UNL1       -0.2241
     25 H         143.4825  136.9284  162.4741 H       1  UNL1        0.2918
     26 C         143.0053  138.4629  161.0204 C.3     1  UNL1        0.1755
     27 C         142.1439  137.9980  159.8838 C.3     1  UNL1        0.0799
     28 C         142.1927  138.7115  158.5652 C.3     1  UNL1        0.1464
     29 O         143.1029  139.8898  158.3833 O.3     1  UNL1       -0.3521
     30 C         143.9643  140.3547  159.5199 C.3     1  UNL1        0.1616
     31 C         143.9155  139.6412  160.8385 C.3     1  UNL1        0.1239
     32 N         144.7768  140.1060  161.9751 N.3     1  UNL1       -0.3170
     33 H         145.3271  140.9116  161.6774 H       1  UNL1        0.1190
     34 H         145.4032  139.3521  162.2575 H       1  UNL1        0.1190
@<TRIPOS>BOND
     1    14    15    1
     2    15    16    2
     3    16    17    1
     4    17    18    2
     5    18    19    1
     6    19    12    1
     7    12     1    1
     8     1     2    1
     9     2     3    2
    10     3    24    1
    11    26    24    1
    12    26    27    1
    13    27    28    1
    14    28    29    1
    15    29    30    1
    16    30    31    1
    17    31    32    1
    18     3     4    1
    19     4     5    1
    20     5     6    2
    21     6     7    1
    22     7     8    2
    23     8     9    1
    24     9    10    2
    25     9    11    1
    26    19    20    1
    27    20    21    2
    28    21    22    1
    29    22    23    2
    30    23    15    1
    31    23    18    1
    32    11     1    2
    33    31    26    1
    34    11     5    1
    35    12    13    1
    36    24    25    1
    37    32    33    1
    38    32    34    1
@<TRIPOS>MOLECULE
*****
 34 38 0 0 0
SMALL
GASTEIGER

@<TRIPOS>ATOM
      1 C         140.7155  139.4028  160.9962 C.2     1  UNL1        0.3308
      2 N         139.6919  140.4474  161.3292 N.2     1  UNL1       -0.0045
      3 C         139.4295  141.5723  160.3723 C.2     1  UNL1        0.3072
      4 C         140.1907  141.6527  159.0823 C.3     1  UNL1        0.1631
      5 C         141.2144  140.6080  158.7493 C.2     1  UNL1        0.0844
      6 N         141.9757  140.6884  157.4593 N.2     1  UNL1       -0.2296
      7 C         142.9994  139.6438  157.1263 C.2     1  UNL1        0.1880
      8 N         143.2618  138.5189  158.0833 N.am    1  UNL1       -0.1535
      9 C         142.5005  138.4386  159.3732 C.2     1  UNL1        0.2788
     10 O         142.7629  137.3136  160.3301 O.2     1  UNL1       -0.2677
     11 C         141.4768  139.4831  159.7062 C.2     1  UNL1        0.1515
     12 N         140.9779  138.2779  161.9531 N.pl3   1  UNL1       -0.2134
     13 H         140.8887  137.3448  161.6523 H       1  UNL1        0.2928
     14 C         139.4190  139.9034  168.0284 C.3     1  UNL1        0.0327
     15 C         139.4844  139.5471  166.5728 C.2     1  UNL1       -0.0015
     16 C         138.3171  139.4478  165.6360 C.2     1  UNL1        0.0944
     17 N         138.8399  139.0668  164.2827 N.2     1  UNL1       -0.2442
     18 C         140.3303  138.9307  164.3830 C.2     1  UNL1        0.1052
     19 C         141.3762  138.5748  163.3685 C.3     1  UNL1        0.2198
     20 C         142.8205  138.5157  163.7693 C.2     1  UNL1        0.0258
     21 C         143.2188  138.8125  165.1846 C.2     1  UNL1       -0.0002
     22 C         142.1729  139.1684  166.1992 C.2     1  UNL1        0.0009
     23 C         140.7287  139.2275  165.7984 C.2     1  UNL1        0.0153
     24 N         138.4057  142.6169  160.7053 N.pl3   1  UNL1       -0.2241
     25 H         137.7616  142.9106  160.0212 H       1  UNL1        0.2918
     26 C         138.3635  143.2141  162.0807 C.3     1  UNL1        0.1755
     27 C         139.0985  144.4898  162.3673 C.3     1  UNL1        0.0799
     28 C         139.0563  145.0870  163.7427 C.3     1  UNL1        0.1464
     29 O         138.2791  144.4083  164.8315 O.3     1  UNL1       -0.3521
     30 C         137.5441  143.1325  164.5448 C.3     1  UNL1        0.1616
     31 C         137.5863  142.5354  163.1694 C.3     1  UNL1        0.1239
     32 N         136.8514  141.2596  162.8827 N.3     1  UNL1       -0.3170
     33 H         136.3815  140.9402  163.7298 H       1  UNL1        0.1190
     34 H         137.5132  140.5483  162.5723 H       1  UNL1        0.1190
@<TRIPOS>BOND
     1    14    15    1
     2    15    16    2
     3    16    17    1
     4    17    18    2
     5    18    19    1
     6    19    12    1
     7    12     1    1
     8     1     2    1
     9     2     3    2
    10     3    24    1
    11    26    24    1
    12    26    27    1
    13    27    28    1
    14    28    29    1
    15    29    30    1
    16    30    31    1
    17    31    32    1
    18     3     4    1
    19     4     5    1
    20     5     6    2
    21     6     7    1
    22     7     8    2
    23     8     9    1
    24     9    10    2
    25     9    11    1
    26    19    20    1
    27    20    21    2
    28    21    22    1
    29    22    23    2
    30    23    15    1
    31    23    18    1
    32    11     1    2
    33    31    26    1
    34    11     5    1
    35    12    13    1
    36    24    25    1
    37    32    33    1
    38    32    34    1
@<TRIPOS>MOLECULE
*****
 34 38 0 0 0
SMALL
GASTEIGER

@<TRIPOS>ATOM
      1 C         141.4237  139.2369  166.0501 C.2     1  UNL1        0.3308
      2 N         140.6005  138.9040  164.8413 N.2     1  UNL1       -0.0045
      3 C         139.1036  138.8847  164.9354 C.2     1  UNL1        0.3072
      4 C         138.4299  139.1983  166.2383 C.3     1  UNL1        0.1631
      5 C         139.2531  139.5312  167.4473 C.2     1  UNL1        0.0844
      6 N         138.5795  139.8448  168.7503 N.2     1  UNL1       -0.2296
      7 C         139.4027  140.1777  169.9591 C.2     1  UNL1        0.1880
      8 N         140.8996  140.1970  169.8650 N.am    1  UNL1       -0.1535
      9 C         141.5733  139.8834  168.5621 C.2     1  UNL1        0.2788
     10 O         143.0702  139.9027  168.4680 O.2     1  UNL1       -0.2677
     11 C         140.7501  139.5505  167.3532 C.2     1  UNL1        0.1515
     12 N         142.9207  139.2562  165.9560 N.pl3   1  UNL1       -0.2134
     13 H         143.4534  138.5904  166.4480 H       1  UNL1        0.2928
     14 C         143.1162  145.1870  163.3543 C.3     1  UNL1        0.0327
     15 C         142.8106  143.9068  164.0738 C.2     1  UNL1       -0.0015
     16 C         141.5980  143.6354  164.9141 C.2     1  UNL1        0.0944
     17 N         141.7019  142.2341  165.4389 N.2     1  UNL1       -0.2442
     18 C         142.9786  141.6393  164.9230 C.2     1  UNL1        0.1052
     19 C         143.6058  140.2900  165.1124 C.3     1  UNL1        0.2198
     20 C         144.9183  139.9744  164.4581 C.2     1  UNL1        0.0258
     21 C         145.6035  141.0082  163.6145 C.2     1  UNL1       -0.0002
     22 C         144.9763  142.3575  163.4250 C.2     1  UNL1        0.0009
     23 C         143.6639  142.6731  164.0792 C.2     1  UNL1        0.0153
     24 N         138.2803  138.5518  163.7264 N.pl3   1  UNL1       -0.2241
     25 H         137.5604  137.8833  163.7900 H       1  UNL1        0.2918
     26 C         138.5540  139.2374  162.4207 C.3     1  UNL1        0.1755
     27 C         139.5135  138.6293  161.4410 C.3     1  UNL1        0.0799
     28 C         139.7872  139.3149  160.1352 C.3     1  UNL1        0.1464
     29 O         139.1014  140.6086  159.8091 O.3     1  UNL1       -0.3521
     30 C         138.1420  141.2166  160.7888 C.3     1  UNL1        0.1616
     31 C         137.8683  140.5310  162.0946 C.3     1  UNL1        0.1239
     32 N         136.9089  141.1390  163.0743 N.3     1  UNL1       -0.3170
     33 H         136.5389  142.0094  162.6924 H       1  UNL1        0.1190
     34 H         137.3941  141.3314  163.9507 H       1  UNL1        0.1190
@<TRIPOS>BOND
     1    14    15    1
     2    15    16    2
     3    16    17    1
     4    17    18    2
     5    18    19    1
     6    19    12    1
     7    12     1    1
     8     1     2    1
     9     2     3    2
    10     3    24    1
    11    26    24    1
    12    26    27    1
    13    27    28    1
    14    28    29    1
    15    29    30    1
    16    30    31    1
    17    31    32    1
    18     3     4    1
    19     4     5    1
    20     5     6    2
    21     6     7    1
    22     7     8    2
    23     8     9    1
    24     9    10    2
    25     9    11    1
    26    19    20    1
    27    20    21    2
    28    21    22    1
    29    22    23    2
    30    23    15    1
    31    23    18    1
    32    11     1    2
    33    31    26    1
    34    11     5    1
    35    12    13    1
    36    24    25    1
    37    32    33    1
    38    32    34    1
@<TRIPOS>MOLECULE
*****
 34 38 0 0 0
SMALL
GASTEIGER

@<TRIPOS>ATOM
      1 C         139.0921  143.0795  159.5555 C.2     1  UNL1        0.3308
      2 N         138.4165  142.0634  160.4278 N.2     1  UNL1       -0.0045
      3 C         137.9612  140.7585  159.8447 C.2     1  UNL1        0.3072
      4 C         138.1814  140.4698  158.3893 C.3     1  UNL1        0.1631
      5 C         138.8570  141.4860  157.5170 C.2     1  UNL1        0.0844
      6 N         139.0773  141.1973  156.0616 N.2     1  UNL1       -0.2296
      7 C         139.7529  142.2135  155.1893 C.2     1  UNL1        0.1880
      8 N         140.2082  143.5184  155.7724 N.am    1  UNL1       -0.1535
      9 C         139.9879  143.8071  157.2278 C.2     1  UNL1        0.2788
     10 O         140.4433  145.1119  157.8108 O.2     1  UNL1       -0.2677
     11 C         139.3124  142.7909  158.1000 C.2     1  UNL1        0.1515
     12 N         139.5474  144.3844  160.1386 N.pl3   1  UNL1       -0.2134
     13 H         139.5805  145.1907  159.5746 H       1  UNL1        0.2928
     14 C         144.1004  144.1132  164.7405 C.3     1  UNL1        0.0327
     15 C         143.2749  144.1217  163.4881 C.2     1  UNL1       -0.0015
     16 C         143.7851  143.9054  162.0942 C.2     1  UNL1        0.0944
     17 N         142.6197  143.9980  161.1544 N.2     1  UNL1       -0.2442
     18 C         141.3892  144.2715  161.9675 C.2     1  UNL1        0.1052
     19 C         139.9523  144.4608  161.5808 C.3     1  UNL1        0.2198
     20 C         138.9203  144.7266  162.6365 C.2     1  UNL1        0.0258
     21 C         139.3252  144.8030  164.0788 C.2     1  UNL1       -0.0002
     22 C         140.7621  144.6136  164.4654 C.2     1  UNL1        0.0009
     23 C         141.7941  144.3479  163.4098 C.2     1  UNL1        0.0153
     24 N         137.2856  139.7423  160.7171 N.pl3   1  UNL1       -0.2241
     25 H         136.4323  139.3404  160.4346 H       1  UNL1        0.2918
     26 C         137.9099  139.3383  162.0197 C.3     1  UNL1        0.1755
     27 C         138.7462  138.0955  162.0971 C.3     1  UNL1        0.0799
     28 C         139.3706  137.6916  163.3998 C.3     1  UNL1        0.1464
     29 O         139.1587  138.5305  164.6251 O.3     1  UNL1       -0.3521
     30 C         138.3225  139.7733  164.5477 C.3     1  UNL1        0.1616
     31 C         137.6981  140.1773  163.2450 C.3     1  UNL1        0.1239
     32 N         136.8618  141.4201  163.1676 N.3     1  UNL1       -0.3170
     33 H         136.8249  141.8628  164.0857 H       1  UNL1        0.1190
     34 H         135.9173  141.1763  162.8695 H       1  UNL1        0.1190
@<TRIPOS>BOND
     1    14    15    1
     2    15    16    2
     3    16    17    1
     4    17    18    2
     5    18    19    1
     6    19    12    1
     7    12     1    1
     8     1     2    1
     9     2     3    2
    10     3    24    1
    11    26    24    1
    12    26    27    1
    13    27    28    1
    14    28    29    1
    15    29    30    1
    16    30    31    1
    17    31    32    1
    18     3     4    1
    19     4     5    1
    20     5     6    2
    21     6     7    1
    22     7     8    2
    23     8     9    1
    24     9    10    2
    25     9    11    1
    26    19    20    1
    27    20    21    2
    28    21    22    1
    29    22    23    2
    30    23    15    1
    31    23    18    1
    32    11     1    2
    33    31    26    1
    34    11     5    1
    35    12    13    1
    36    24    25    1
    37    32    33    1
    38    32    34    1
