@<TRIPOS>MOLECULE
*****
 38 44 0 0 0
SMALL
GASTEIGER

@<TRIPOS>ATOM
      1 C         138.5489  138.7700  164.3860 C.3     1  UNL1        0.0955
      2 C         137.9151  140.1003  164.1049 C.3     1  UNL1        0.0287
      3 C         137.5948  140.4952  162.6938 C.3     1  UNL1        0.0193
      4 C         137.9083  139.5601  161.5637 C.3     1  UNL1        0.0700
      5 C         138.5420  138.2299  161.8448 C.3     1  UNL1        0.0193
      6 C         138.8623  137.8349  163.2559 C.3     1  UNL1        0.0287
      7 C         138.1022  139.2996  162.3204 C.3     1  UNL1        0.1562
      8 O         138.3918  138.9425  163.5964 O.3     1  UNL1       -0.3571
      9 N         137.5880  139.9550  160.1525 N.3     1  UNL1       -0.2925
     10 H         136.7074  140.4689  160.1832 H       1  UNL1        0.1236
     11 C         138.5535  140.7965  159.3718 C.3     1  UNL1        0.1186
     12 C         139.1788  142.0039  160.0054 C.ar    1  UNL1        0.1166
     13 C         140.4650  142.0285  160.7766 C.ar    1  UNL1        0.0600
     14 C         140.7086  143.4384  161.2268 C.ar    1  UNL1        0.1825
     15 O         139.5730  144.2853  160.7339 O.2     1  UNL1       -0.3532
     16 N         138.6274  143.3986  159.9789 N.ar    1  UNL1       -0.0799
     17 C         141.8820  143.9174  162.0292 C.ar    1  UNL1        0.0666
     18 C         141.8258  144.8485  163.2039 C.ar    1  UNL1        0.0102
     19 C         143.2266  145.0560  163.6984 C.ar    1  UNL1        0.0076
     20 C         144.1486  144.2531  162.8293 C.ar    1  UNL1        0.0355
     21 S         143.3176  143.5495  161.7978 S.2     1  UNL1       -0.0833
     22 C         138.8691  138.3751  165.7972 C.3     1  UNL1        0.0604
     23 O         143.0931  140.6460  163.9853 O.2     1  UNL1       -0.2670
     24 C         142.7284  141.1070  165.3653 C.ar    1  UNL1        0.2611
     25 C         143.5744  142.1310  166.0621 C.ar    1  UNL1        0.0623
     26 C         143.2096  142.5920  167.4421 C.ar    1  UNL1        0.0254
     27 C         141.9988  142.0290  168.1253 C.ar    1  UNL1        0.0972
     28 N         141.4032  142.3005  169.4825 N.ar    1  UNL1       -0.2400
     29 C         140.1699  141.6510  170.0366 C.ar    1  UNL1        0.1282
     30 C         139.4236  140.6387  169.2191 C.ar    1  UNL1        0.1588
     31 F         138.1903  139.9892  169.7732 F       1  UNL1       -0.2027
     32 C         139.9105  140.2760  167.8475 C.ar    1  UNL1        0.0500
     33 C         141.1527  141.0050  167.4285 C.ar    1  UNL1        0.0806
     34 N         141.5175  140.5440  166.0485 N.ar    1  UNL1       -0.2915
     35 C         140.5008  139.5301  165.6146 C.3     1  UNL1        0.1402
     36 C         139.5076  139.3645  166.7264 C.3     1  UNL1        0.1335
     37 O         138.3809  138.9920  167.6440 O.3     1  UNL1       -0.3806
     38 H         137.8189  138.3291  167.2134 H       1  UNL1        0.2108
@<TRIPOS>BOND
     1    23    24    2
     2    24    25   ar
     3    25    26   ar
     4    26    27   ar
     5    27    28   ar
     6    28    29   ar
     7    29    30   ar
     8    30    31    1
     9    30    32   ar
    10    32    33   ar
    11    33    34   ar
    12    34    35    1
    13    35    36    1
    14    36    37    1
    15    36    22    1
    16    22     1    1
    17     1     2    1
    18     2     3    1
    19     3     4    1
    20     4     9    1
    21     9    11    1
    22    11    12    1
    23    12    13   ar
    24    13    14   ar
    25    14    17    1
    26    17    18   ar
    27    18    19   ar
    28    19    20   ar
    29    20    21   ar
    30    14    15   ar
    31    15    16   ar
    32     4     5    1
    33     5     6    1
    34     4     7    1
    35     7     8    1
    36    34    24   ar
    37     6     1    1
    38    33    27   ar
    39     8     1    1
    40    36    32    1
    41    16    12   ar
    42    21    17   ar
    43    37    38    1
    44     9    10    1
@<TRIPOS>MOLECULE
*****
 38 44 0 0 0
SMALL
GASTEIGER

@<TRIPOS>ATOM
      1 C         138.7803  138.9669  164.1853 C.3     1  UNL1        0.0955
      2 C         138.0287  140.2259  163.8688 C.3     1  UNL1        0.0287
      3 C         137.5296  140.4714  162.4757 C.3     1  UNL1        0.0193
      4 C         137.7821  139.4579  161.3991 C.3     1  UNL1        0.0700
      5 C         138.5337  138.1989  161.7156 C.3     1  UNL1        0.0193
      6 C         139.0328  137.9534  163.1087 C.3     1  UNL1        0.0287
      7 C         138.0751  139.2792  162.1477 C.3     1  UNL1        0.1562
      8 O         138.5264  139.0573  163.4073 O.3     1  UNL1       -0.3571
      9 N         137.2831  139.7033  160.0060 N.3     1  UNL1       -0.2925
     10 H         136.3790  140.1671  160.0945 H       1  UNL1        0.1236
     11 C         138.0987  140.5232  159.0508 C.3     1  UNL1        0.1186
     12 C         138.8903  141.6939  159.5538 C.ar    1  UNL1        0.1166
     13 C         140.2144  141.6270  160.2552 C.ar    1  UNL1        0.0600
     14 C         140.6390  143.0288  160.5786 C.ar    1  UNL1        0.1825
     15 O         139.5773  143.9621  160.0771 O.2     1  UNL1       -0.3532
     16 N         138.4964  143.1371  159.4437 N.ar    1  UNL1       -0.0799
     17 C         141.9035  143.4273  161.2803 C.ar    1  UNL1        0.0666
     18 C         142.0406  144.5223  162.2962 C.ar    1  UNL1        0.0102
     19 C         143.4747  144.5725  162.7330 C.ar    1  UNL1        0.0076
     20 C         144.2239  143.5085  161.9870 C.ar    1  UNL1        0.0355
     21 S         143.2530  142.8008  161.0892 S.2     1  UNL1       -0.0833
     22 C         139.2793  138.7215  165.5784 C.3     1  UNL1        0.0604
     23 O         138.0610  140.0417  170.3800 O.2     1  UNL1       -0.2670
     24 C         139.3024  140.7221  169.8843 C.ar    1  UNL1        0.2611
     25 C         140.0425  141.6747  170.7758 C.ar    1  UNL1        0.0623
     26 C         141.2840  142.3551  170.2801 C.ar    1  UNL1        0.0254
     27 C         141.7854  142.0830  168.8929 C.ar    1  UNL1        0.0972
     28 N         142.9803  142.6122  168.1429 N.ar    1  UNL1       -0.2400
     29 C         143.3594  142.2431  166.7393 C.ar    1  UNL1        0.1282
     30 C         142.5181  141.2711  165.9663 C.ar    1  UNL1        0.1588
     31 F         142.8972  140.9020  164.5627 F       1  UNL1       -0.2027
     32 C         141.2979  140.6683  166.5968 C.ar    1  UNL1        0.0500
     33 C         141.0453  141.1305  168.0013 C.ar    1  UNL1        0.0806
     34 N         139.8038  140.4501  168.4970 N.ar    1  UNL1       -0.2915
     35 C         139.2891  139.5674  167.3989 C.3     1  UNL1        0.1402
     36 C         140.2125  139.7022  166.2245 C.3     1  UNL1        0.1335
     37 O         140.9408  139.6321  164.9150 O.3     1  UNL1       -0.3806
     38 H         140.4791  139.0203  164.3206 H       1  UNL1        0.2108
@<TRIPOS>BOND
     1    23    24    2
     2    24    25   ar
     3    25    26   ar
     4    26    27   ar
     5    27    28   ar
     6    28    29   ar
     7    29    30   ar
     8    30    31    1
     9    30    32   ar
    10    32    33   ar
    11    33    34   ar
    12    34    35    1
    13    35    36    1
    14    36    37    1
    15    36    22    1
    16    22     1    1
    17     1     2    1
    18     2     3    1
    19     3     4    1
    20     4     9    1
    21     9    11    1
    22    11    12    1
    23    12    13   ar
    24    13    14   ar
    25    14    17    1
    26    17    18   ar
    27    18    19   ar
    28    19    20   ar
    29    20    21   ar
    30    14    15   ar
    31    15    16   ar
    32     4     5    1
    33     5     6    1
    34     4     7    1
    35     7     8    1
    36    34    24   ar
    37     6     1    1
    38    33    27   ar
    39     8     1    1
    40    36    32    1
    41    16    12   ar
    42    21    17   ar
    43    37    38    1
    44     9    10    1
@<TRIPOS>MOLECULE
*****
 38 44 0 0 0
SMALL
GASTEIGER

@<TRIPOS>ATOM
      1 C         143.6207  140.5951  159.7641 C.3     1  UNL1        0.0955
      2 C         142.9584  140.6735  158.4205 C.3     1  UNL1        0.0287
      3 C         142.7318  142.0074  157.7728 C.3     1  UNL1        0.0193
      4 C         143.1676  143.2627  158.4686 C.3     1  UNL1        0.0700
      5 C         143.8299  143.1842  159.8121 C.3     1  UNL1        0.0193
      6 C         144.0565  141.8504  160.4600 C.3     1  UNL1        0.0287
      7 C         143.3131  142.5547  158.8632 C.3     1  UNL1        0.1562
      8 O         143.5179  141.3487  159.4488 O.3     1  UNL1       -0.3571
      9 N         142.9410  144.5966  157.8209 N.3     1  UNL1       -0.2925
     10 H         142.9097  144.4337  156.8144 H       1  UNL1        0.1236
     11 C         141.7236  145.4014  158.1673 C.3     1  UNL1        0.1186
     12 C         140.7281  144.8683  159.1547 C.ar    1  UNL1        0.1166
     13 C         140.7076  145.1529  160.6272 C.ar    1  UNL1        0.0600
     14 C         139.5451  144.4174  161.2253 C.ar    1  UNL1        0.1825
     15 O         138.8472  143.6782  160.1225 O.2     1  UNL1       -0.3532
     16 N         139.5783  143.9569  158.8427 N.ar    1  UNL1       -0.0799
     17 C         139.1500  144.4206  162.6724 C.ar    1  UNL1        0.0666
     18 C         137.7840  144.1198  163.2140 C.ar    1  UNL1        0.0102
     19 C         137.8413  144.2385  164.7082 C.ar    1  UNL1        0.0076
     20 C         139.2428  144.6127  165.0900 C.ar    1  UNL1        0.0355
     21 S         140.0516  144.7252  163.8319 S.2     1  UNL1       -0.0833
     22 C         143.8473  139.2612  160.4119 C.3     1  UNL1        0.0604
     23 O         138.9471  137.8503  160.9414 O.2     1  UNL1       -0.2670
     24 C         139.6705  137.9523  162.2515 C.ar    1  UNL1        0.2611
     25 C         138.9489  137.6524  163.5319 C.ar    1  UNL1        0.0623
     26 C         139.6722  137.7544  164.8420 C.ar    1  UNL1        0.0254
     27 C         141.1171  138.1562  164.8718 C.ar    1  UNL1        0.0972
     28 N         142.0783  138.3372  166.0180 N.ar    1  UNL1       -0.2400
     29 C         143.5151  138.7487  165.8912 C.ar    1  UNL1        0.1282
     30 C         144.1018  139.0165  164.5369 C.ar    1  UNL1        0.1588
     31 F         145.5387  139.4281  164.4102 F       1  UNL1       -0.2027
     32 C         143.2517  138.8728  163.3095 C.ar    1  UNL1        0.0500
     33 C         141.8386  138.4560  163.5914 C.ar    1  UNL1        0.0806
     34 N         141.1153  138.3540  162.2813 N.ar    1  UNL1       -0.2915
     35 C         142.0814  138.7078  161.1897 C.3     1  UNL1        0.1402
     36 C         143.4018  139.0284  161.8251 C.3     1  UNL1        0.1335
     37 O         144.8153  139.3977  162.1652 O.3     1  UNL1       -0.3806
     38 H         145.3025  139.5963  161.3503 H       1  UNL1        0.2108
@<TRIPOS>BOND
     1    23    24    2
     2    24    25   ar
     3    25    26   ar
     4    26    27   ar
     5    27    28   ar
     6    28    29   ar
     7    29    30   ar
     8    30    31    1
     9    30    32   ar
    10    32    33   ar
    11    33    34   ar
    12    34    35    1
    13    35    36    1
    14    36    37    1
    15    36    22    1
    16    22     1    1
    17     1     2    1
    18     2     3    1
    19     3     4    1
    20     4     9    1
    21     9    11    1
    22    11    12    1
    23    12    13   ar
    24    13    14   ar
    25    14    17    1
    26    17    18   ar
    27    18    19   ar
    28    19    20   ar
    29    20    21   ar
    30    14    15   ar
    31    15    16   ar
    32     4     5    1
    33     5     6    1
    34     4     7    1
    35     7     8    1
    36    34    24   ar
    37     6     1    1
    38    33    27   ar
    39     8     1    1
    40    36    32    1
    41    16    12   ar
    42    21    17   ar
    43    37    38    1
    44     9    10    1
@<TRIPOS>MOLECULE
*****
 38 44 0 0 0
SMALL
GASTEIGER

@<TRIPOS>ATOM
      1 C         138.7325  139.3620  164.5500 C.3     1  UNL1        0.0955
      2 C         139.4263  138.0650  164.2556 C.3     1  UNL1        0.0287
      3 C         139.5042  137.5593  162.8456 C.3     1  UNL1        0.0193
      4 C         138.8885  138.3505  161.7299 C.3     1  UNL1        0.0700
      5 C         138.1947  139.6475  162.0243 C.3     1  UNL1        0.0193
      6 C         138.1167  140.1533  163.4343 C.3     1  UNL1        0.0287
      7 C         138.8203  138.6682  162.4866 C.3     1  UNL1        0.1562
      8 O         138.7498  139.1255  163.7615 O.3     1  UNL1       -0.3571
      9 N         138.9664  137.8448  160.3199 N.3     1  UNL1       -0.2925
     10 H         138.0665  138.0470  159.8844 H       1  UNL1        0.1236
     11 C         140.0233  138.3679  159.3929 C.3     1  UNL1        0.1186
     12 C         141.4190  138.5899  159.8959 C.ar    1  UNL1        0.1166
     13 C         141.8386  139.6122  160.9100 C.ar    1  UNL1        0.0600
     14 C         143.3190  139.4825  161.1138 C.ar    1  UNL1        0.1825
     15 O         143.8144  138.3800  160.2256 O.2     1  UNL1       -0.3532
     16 N         142.6401  137.8283  159.4728 N.ar    1  UNL1       -0.0799
     17 C         144.1570  140.3101  162.0428 C.ar    1  UNL1        0.0666
     18 C         144.6958  139.8707  163.3719 C.ar    1  UNL1        0.0102
     19 C         145.4750  141.0115  163.9562 C.ar    1  UNL1        0.0076
     20 C         145.4178  142.1559  162.9883 C.ar    1  UNL1        0.0355
     21 S         144.6032  141.7225  161.8057 S.2     1  UNL1       -0.0833
     22 C         138.6546  139.8678  165.9600 C.3     1  UNL1        0.0604
     23 O         138.9458  139.4242  171.0591 O.2     1  UNL1       -0.2670
     24 C         140.0894  140.1986  170.4739 C.ar    1  UNL1        0.2611
     25 C         141.1600  140.7473  171.3698 C.ar    1  UNL1        0.0623
     26 C         142.3036  141.5217  170.7846 C.ar    1  UNL1        0.0254
     27 C         142.3766  141.7474  169.3035 C.ar    1  UNL1        0.0972
     28 N         143.3880  142.4727  168.4541 N.ar    1  UNL1       -0.2400
     29 C         143.3269  142.6173  166.9624 C.ar    1  UNL1        0.1282
     30 C         142.1887  142.0113  166.1961 C.ar    1  UNL1        0.1588
     31 F         142.1277  142.1559  164.7043 F       1  UNL1       -0.2027
     32 C         141.1116  141.2606  166.9216 C.ar    1  UNL1        0.0500
     33 C         141.3060  141.1987  168.4076 C.ar    1  UNL1        0.0806
     34 N         140.1624  140.4243  168.9928 N.ar    1  UNL1       -0.2915
     35 C         139.2612  140.0077  167.8684 C.3     1  UNL1        0.1402
     36 C         139.8478  140.5245  166.5883 C.3     1  UNL1        0.1335
     37 O         140.1850  140.9041  165.1769 O.3     1  UNL1       -0.3806
     38 H         139.5046  140.5590  164.5779 H       1  UNL1        0.2108
@<TRIPOS>BOND
     1    23    24    2
     2    24    25   ar
     3    25    26   ar
     4    26    27   ar
     5    27    28   ar
     6    28    29   ar
     7    29    30   ar
     8    30    31    1
     9    30    32   ar
    10    32    33   ar
    11    33    34   ar
    12    34    35    1
    13    35    36    1
    14    36    37    1
    15    36    22    1
    16    22     1    1
    17     1     2    1
    18     2     3    1
    19     3     4    1
    20     4     9    1
    21     9    11    1
    22    11    12    1
    23    12    13   ar
    24    13    14   ar
    25    14    17    1
    26    17    18   ar
    27    18    19   ar
    28    19    20   ar
    29    20    21   ar
    30    14    15   ar
    31    15    16   ar
    32     4     5    1
    33     5     6    1
    34     4     7    1
    35     7     8    1
    36    34    24   ar
    37     6     1    1
    38    33    27   ar
    39     8     1    1
    40    36    32    1
    41    16    12   ar
    42    21    17   ar
    43    37    38    1
    44     9    10    1
@<TRIPOS>MOLECULE
*****
 38 44 0 0 0
SMALL
GASTEIGER

@<TRIPOS>ATOM
      1 C         144.0539  140.3582  164.8903 C.3     1  UNL1        0.0955
      2 C         143.7064  139.0172  165.4657 C.3     1  UNL1        0.0287
      3 C         142.9041  138.9287  166.7300 C.3     1  UNL1        0.0193
      4 C         142.4493  140.1811  167.4189 C.3     1  UNL1        0.0700
      5 C         142.7968  141.5220  166.8434 C.3     1  UNL1        0.0193
      6 C         143.5991  141.6106  165.5791 C.3     1  UNL1        0.0287
      7 C         142.8868  140.2800  166.7283 C.3     1  UNL1        0.1562
      8 O         143.6123  140.3600  165.5852 O.3     1  UNL1       -0.3571
      9 N         141.6469  140.0926  168.6832 N.3     1  UNL1       -0.2925
     10 H         142.0740  140.7370  169.3486 H       1  UNL1        0.1236
     11 C         140.1791  140.4008  168.6630 C.3     1  UNL1        0.1186
     12 C         139.3255  139.9116  167.5306 C.ar    1  UNL1        0.1166
     13 C         139.4452  140.3249  166.0938 C.ar    1  UNL1        0.0600
     14 C         138.3960  139.5919  165.3116 C.ar    1  UNL1        0.1825
     15 O         137.6279  138.7254  166.2650 O.2     1  UNL1       -0.3532
     16 N         138.2023  138.9230  167.6365 N.ar    1  UNL1       -0.0799
     17 C         138.1570  139.7054  163.8350 C.ar    1  UNL1        0.0666
     18 C         137.5935  140.8988  163.1223 C.ar    1  UNL1        0.0102
     19 C         137.5278  140.5763  161.6589 C.ar    1  UNL1        0.0076
     20 C         138.0506  139.1835  161.4672 C.ar    1  UNL1        0.0355
     21 S         138.4395  138.6453  162.8121 S.2     1  UNL1       -0.0833
     22 C         144.8563  140.4467  163.6260 C.3     1  UNL1        0.0604
     23 O         142.8939  144.5862  161.3248 O.2     1  UNL1       -0.2670
     24 C         142.6984  143.3288  160.5307 C.ar    1  UNL1        0.2611
     25 C         141.9891  143.3784  159.2100 C.ar    1  UNL1        0.0623
     26 C         141.7935  142.1209  158.4159 C.ar    1  UNL1        0.0254
     27 C         142.3072  140.8138  158.9427 C.ar    1  UNL1        0.0972
     28 N         142.2552  139.4197  158.3732 N.ar    1  UNL1       -0.2400
     29 C         142.8206  138.1926  159.0247 C.ar    1  UNL1        0.1282
     30 C         143.5068  138.2980  160.3544 C.ar    1  UNL1        0.1588
     31 F         144.0722  137.0709  161.0059 F       1  UNL1       -0.2027
     32 C         143.6275  139.6305  161.0326 C.ar    1  UNL1        0.0500
     33 C         143.0164  140.7641  160.2635 C.ar    1  UNL1        0.0806
     34 N         143.2120  142.0216  161.0575 N.ar    1  UNL1       -0.2915
     35 C         143.9439  141.6651  162.3173 C.3     1  UNL1        0.1402
     36 C         144.2007  140.1874  162.3020 C.3     1  UNL1        0.1335
     37 O         144.5945  138.7638  162.5633 O.3     1  UNL1       -0.3806
     38 H         145.0561  138.7071  163.4146 H       1  UNL1        0.2108
@<TRIPOS>BOND
     1    23    24    2
     2    24    25   ar
     3    25    26   ar
     4    26    27   ar
     5    27    28   ar
     6    28    29   ar
     7    29    30   ar
     8    30    31    1
     9    30    32   ar
    10    32    33   ar
    11    33    34   ar
    12    34    35    1
    13    35    36    1
    14    36    37    1
    15    36    22    1
    16    22     1    1
    17     1     2    1
    18     2     3    1
    19     3     4    1
    20     4     9    1
    21     9    11    1
    22    11    12    1
    23    12    13   ar
    24    13    14   ar
    25    14    17    1
    26    17    18   ar
    27    18    19   ar
    28    19    20   ar
    29    20    21   ar
    30    14    15   ar
    31    15    16   ar
    32     4     5    1
    33     5     6    1
    34     4     7    1
    35     7     8    1
    36    34    24   ar
    37     6     1    1
    38    33    27   ar
    39     8     1    1
    40    36    32    1
    41    16    12   ar
    42    21    17   ar
    43    37    38    1
    44     9    10    1
@<TRIPOS>MOLECULE
*****
 38 44 0 0 0
SMALL
GASTEIGER

@<TRIPOS>ATOM
      1 C         144.3536  140.7437  162.4473 C.3     1  UNL1        0.0955
      2 C         143.9209  139.9939  161.2222 C.3     1  UNL1        0.0287
      3 C         143.8809  140.6881  159.8932 C.3     1  UNL1        0.0193
      4 C         144.2735  142.1320  159.7891 C.3     1  UNL1        0.0700
      5 C         144.7061  142.8818  161.0141 C.3     1  UNL1        0.0193
      6 C         144.7462  142.1876  162.3433 C.3     1  UNL1        0.0287
      7 C         144.3114  141.7943  160.5391 C.3     1  UNL1        0.1562
      8 O         144.3477  141.1666  161.7409 O.3     1  UNL1       -0.3571
      9 N         144.2334  142.8262  158.4600 N.3     1  UNL1       -0.2925
     10 H         144.4825  142.1306  157.7568 H       1  UNL1        0.1236
     11 C         142.9665  143.4795  157.9931 C.3     1  UNL1        0.1186
     12 C         142.0035  144.0486  158.9926 C.ar    1  UNL1        0.1166
     13 C         141.0707  143.2620  159.8649 C.ar    1  UNL1        0.0600
     14 C         140.2951  144.2315  160.7066 C.ar    1  UNL1        0.1825
     15 O         140.7485  145.6172  160.3545 O.2     1  UNL1       -0.3532
     16 N         141.8044  145.5042  159.2951 N.ar    1  UNL1       -0.0799
     17 C         139.2495  143.8773  161.7223 C.ar    1  UNL1        0.0666
     18 C         138.7708  144.7575  162.8385 C.ar    1  UNL1        0.0102
     19 C         137.7245  144.0050  163.6060 C.ar    1  UNL1        0.0076
     20 C         137.5567  142.6597  162.9640 C.ar    1  UNL1        0.0355
     21 S         138.4991  142.5808  161.7999 S.2     1  UNL1       -0.0833
     22 C         144.3937  140.0495  163.7764 C.3     1  UNL1        0.0604
     23 O         140.4486  136.8830  162.9442 O.2     1  UNL1       -0.2670
     24 C         140.2307  137.7917  164.1176 C.ar    1  UNL1        0.2611
     25 C         138.9568  137.7077  164.9049 C.ar    1  UNL1        0.0623
     26 C         138.7389  138.6165  166.0782 C.ar    1  UNL1        0.0254
     27 C         139.7950  139.6092  166.4642 C.ar    1  UNL1        0.0972
     28 N         139.8483  140.6278  167.5734 N.ar    1  UNL1       -0.2400
     29 C         140.9886  141.5653  167.8389 C.ar    1  UNL1        0.1282
     30 C         142.2051  141.5341  166.9618 C.ar    1  UNL1        0.1588
     31 F         143.3454  142.4716  167.2274 F       1  UNL1       -0.2027
     32 C         142.2811  140.5653  165.8191 C.ar    1  UNL1        0.0500
     33 C         141.0690  139.6932  165.6769 C.ar    1  UNL1        0.0806
     34 N         141.2868  138.7845  164.5036 N.ar    1  UNL1       -0.2915
     35 C         142.6336  139.0949  163.9207 C.3     1  UNL1        0.1402
     36 C         143.2481  140.1955  164.7337 C.3     1  UNL1        0.1335
     37 O         144.1021  141.2656  165.3467 O.3     1  UNL1       -0.3806
     38 H         144.9337  141.3381  164.8526 H       1  UNL1        0.2108
@<TRIPOS>BOND
     1    23    24    2
     2    24    25   ar
     3    25    26   ar
     4    26    27   ar
     5    27    28   ar
     6    28    29   ar
     7    29    30   ar
     8    30    31    1
     9    30    32   ar
    10    32    33   ar
    11    33    34   ar
    12    34    35    1
    13    35    36    1
    14    36    37    1
    15    36    22    1
    16    22     1    1
    17     1     2    1
    18     2     3    1
    19     3     4    1
    20     4     9    1
    21     9    11    1
    22    11    12    1
    23    12    13   ar
    24    13    14   ar
    25    14    17    1
    26    17    18   ar
    27    18    19   ar
    28    19    20   ar
    29    20    21   ar
    30    14    15   ar
    31    15    16   ar
    32     4     5    1
    33     5     6    1
    34     4     7    1
    35     7     8    1
    36    34    24   ar
    37     6     1    1
    38    33    27   ar
    39     8     1    1
    40    36    32    1
    41    16    12   ar
    42    21    17   ar
    43    37    38    1
    44     9    10    1
@<TRIPOS>MOLECULE
*****
 38 44 0 0 0
SMALL
GASTEIGER

@<TRIPOS>ATOM
      1 C         138.6733  138.2747  163.3710 C.3     1  UNL1        0.0955
      2 C         138.3339  139.6764  163.7839 C.3     1  UNL1        0.0287
      3 C         138.2053  140.0193  165.2385 C.3     1  UNL1        0.0193
      4 C         138.4161  138.9608  166.2802 C.3     1  UNL1        0.0700
      5 C         138.7554  137.5592  165.8672 C.3     1  UNL1        0.0193
      6 C         138.8840  137.2162  164.4126 C.3     1  UNL1        0.0287
      7 C         138.4972  138.7250  165.4953 C.3     1  UNL1        0.1562
      8 O         138.6135  138.4149  164.1801 O.3     1  UNL1       -0.3571
      9 N         138.2875  139.3037  167.7348 N.3     1  UNL1       -0.2925
     10 H         138.0821  138.4334  168.2255 H       1  UNL1        0.1236
     11 C         139.4330  139.9483  168.4574 C.3     1  UNL1        0.1186
     12 C         140.4381  140.7609  167.6960 C.ar    1  UNL1        0.1166
     13 C         141.5422  140.2186  166.8378 C.ar    1  UNL1        0.0600
     14 C         142.3020  141.3810  166.2707 C.ar    1  UNL1        0.1825
     15 O         141.6675  142.6417  166.7784 O.2     1  UNL1       -0.3532
     16 N         140.5154  142.2584  167.6594 N.ar    1  UNL1       -0.0799
     17 C         143.4882  141.2973  165.3562 C.ar    1  UNL1        0.0666
     18 C         144.0800  140.0395  164.7927 C.ar    1  UNL1        0.0102
     19 C         145.2483  140.4216  163.9331 C.ar    1  UNL1        0.0076
     20 C         145.3785  141.9156  163.9653 C.ar    1  UNL1        0.0355
     21 S         144.2907  142.4568  164.8449 S.2     1  UNL1       -0.0833
     22 C         138.8019  137.9318  161.9164 C.3     1  UNL1        0.0604
     23 O         137.9538  140.0658  157.3328 O.2     1  UNL1       -0.2670
     24 C         139.4125  139.9526  157.6635 C.ar    1  UNL1        0.2611
     25 C         140.4426  140.4416  156.6890 C.ar    1  UNL1        0.0623
     26 C         141.9013  140.3283  157.0197 C.ar    1  UNL1        0.0254
     27 C         142.3299  139.7261  158.3249 C.ar    1  UNL1        0.0972
     28 N         143.6970  139.4893  158.9125 N.ar    1  UNL1       -0.2400
     29 C         143.9731  138.8677  160.2494 C.ar    1  UNL1        0.1282
     30 C         142.8347  138.4245  161.1199 C.ar    1  UNL1        0.1588
     31 F         143.1107  137.8029  162.4568 F       1  UNL1       -0.2027
     32 C         141.4203  138.6030  160.6534 C.ar    1  UNL1        0.0500
     33 C         141.2998  139.2371  159.2994 C.ar    1  UNL1        0.0806
     34 N         139.8411  139.3503  158.9687 N.ar    1  UNL1       -0.2915
     35 C         139.0601  138.7861  160.1183 C.3     1  UNL1        0.1402
     36 C         140.0360  138.3242  161.1595 C.3     1  UNL1        0.1335
     37 O         140.7540  137.7803  162.3589 O.3     1  UNL1       -0.3806
     38 H         140.1062  137.4573  163.0046 H       1  UNL1        0.2108
@<TRIPOS>BOND
     1    23    24    2
     2    24    25   ar
     3    25    26   ar
     4    26    27   ar
     5    27    28   ar
     6    28    29   ar
     7    29    30   ar
     8    30    31    1
     9    30    32   ar
    10    32    33   ar
    11    33    34   ar
    12    34    35    1
    13    35    36    1
    14    36    37    1
    15    36    22    1
    16    22     1    1
    17     1     2    1
    18     2     3    1
    19     3     4    1
    20     4     9    1
    21     9    11    1
    22    11    12    1
    23    12    13   ar
    24    13    14   ar
    25    14    17    1
    26    17    18   ar
    27    18    19   ar
    28    19    20   ar
    29    20    21   ar
    30    14    15   ar
    31    15    16   ar
    32     4     5    1
    33     5     6    1
    34     4     7    1
    35     7     8    1
    36    34    24   ar
    37     6     1    1
    38    33    27   ar
    39     8     1    1
    40    36    32    1
    41    16    12   ar
    42    21    17   ar
    43    37    38    1
    44     9    10    1
@<TRIPOS>MOLECULE
*****
 38 44 0 0 0
SMALL
GASTEIGER

@<TRIPOS>ATOM
      1 C         137.9752  140.3999  162.4297 C.3     1  UNL1        0.0955
      2 C         138.0564  140.3282  163.9259 C.3     1  UNL1        0.0287
      3 C         137.9719  141.5835  164.7426 C.3     1  UNL1        0.0193
      4 C         137.8063  142.9106  164.0633 C.3     1  UNL1        0.0700
      5 C         137.7251  142.9823  162.5672 C.3     1  UNL1        0.0193
      6 C         137.8096  141.7270  161.7504 C.3     1  UNL1        0.0287
      7 C         137.8478  142.2499  163.5735 C.3     1  UNL1        0.1562
      8 O         137.9242  141.1149  162.8350 O.3     1  UNL1       -0.3571
      9 N         137.7218  144.1659  164.8800 N.3     1  UNL1       -0.2925
     10 H         137.3222  143.9044  165.7813 H       1  UNL1        0.1236
     11 C         138.9627  144.9571  165.1696 C.3     1  UNL1        0.1186
     12 C         140.2075  144.7204  164.3667 C.ar    1  UNL1        0.1166
     13 C         141.2469  143.6739  164.6394 C.ar    1  UNL1        0.0600
     14 C         142.3131  143.7955  163.5913 C.ar    1  UNL1        0.1825
     15 O         141.9328  144.9171  162.6710 O.2     1  UNL1       -0.3532
     16 N         140.6314  145.4888  163.1502 N.ar    1  UNL1       -0.0799
     17 C         143.5438  142.9447  163.4828 C.ar    1  UNL1        0.0666
     18 C         144.5878  142.7648  164.5447 C.ar    1  UNL1        0.0102
     19 C         145.6357  141.8334  164.0114 C.ar    1  UNL1        0.0076
     20 C         145.2393  141.4377  162.6199 C.ar    1  UNL1        0.0355
     21 S         143.9465  142.1245  162.2932 S.2     1  UNL1       -0.0833
     22 C         138.0597  139.1446  161.6130 C.3     1  UNL1        0.0604
     23 O         137.9786  139.8964  156.5424 O.2     1  UNL1       -0.2670
     24 C         139.2924  139.3644  157.0331 C.ar    1  UNL1        0.2611
     25 C         140.4081  139.1105  156.0631 C.ar    1  UNL1        0.0623
     26 C         141.7219  138.5785  156.5538 C.ar    1  UNL1        0.0254
     27 C         141.9202  138.3004  158.0144 C.ar    1  UNL1        0.0972
     28 N         143.1084  137.7738  158.7768 N.ar    1  UNL1       -0.2400
     29 C         143.1589  137.5447  160.2583 C.ar    1  UNL1        0.1282
     30 C         141.9581  137.8462  161.1052 C.ar    1  UNL1        0.1588
     31 F         142.0086  137.6171  162.5867 F       1  UNL1       -0.2027
     32 C         140.7068  138.3767  160.4705 C.ar    1  UNL1        0.0500
     33 C         140.8045  138.5544  158.9843 C.ar    1  UNL1        0.0806
     34 N         139.4907  139.0864  158.4936 N.ar    1  UNL1       -0.2915
     35 C         138.5809  139.2375  159.6767 C.3     1  UNL1        0.1402
     36 C         139.3325  138.7990  160.8985 C.3     1  UNL1        0.1335
     37 O         139.8180  138.4326  162.2696 O.3     1  UNL1       -0.3806
     38 H         139.1113  138.5890  162.9154 H       1  UNL1        0.2108
@<TRIPOS>BOND
     1    23    24    2
     2    24    25   ar
     3    25    26   ar
     4    26    27   ar
     5    27    28   ar
     6    28    29   ar
     7    29    30   ar
     8    30    31    1
     9    30    32   ar
    10    32    33   ar
    11    33    34   ar
    12    34    35    1
    13    35    36    1
    14    36    37    1
    15    36    22    1
    16    22     1    1
    17     1     2    1
    18     2     3    1
    19     3     4    1
    20     4     9    1
    21     9    11    1
    22    11    12    1
    23    12    13   ar
    24    13    14   ar
    25    14    17    1
    26    17    18   ar
    27    18    19   ar
    28    19    20   ar
    29    20    21   ar
    30    14    15   ar
    31    15    16   ar
    32     4     5    1
    33     5     6    1
    34     4     7    1
    35     7     8    1
    36    34    24   ar
    37     6     1    1
    38    33    27   ar
    39     8     1    1
    40    36    32    1
    41    16    12   ar
    42    21    17   ar
    43    37    38    1
    44     9    10    1
@<TRIPOS>MOLECULE
*****
 38 44 0 0 0
SMALL
GASTEIGER

@<TRIPOS>ATOM
      1 C         140.5224  138.6087  159.6625 C.3     1  UNL1        0.0955
      2 C         140.4180  139.2808  158.3255 C.3     1  UNL1        0.0287
      3 C         141.6617  139.6657  157.5804 C.3     1  UNL1        0.0193
      4 C         143.0097  139.3785  158.1723 C.3     1  UNL1        0.0700
      5 C         143.1140  138.7064  159.5092 C.3     1  UNL1        0.0193
      6 C         141.8704  138.3215  160.2544 C.3     1  UNL1        0.0287
      7 C         142.3565  139.1489  158.6180 C.3     1  UNL1        0.1562
      8 O         141.2319  138.8009  159.2917 O.3     1  UNL1       -0.3571
      9 N         144.2534  139.7634  157.4272 N.3     1  UNL1       -0.2925
     10 H         144.0477  139.6535  156.4342 H       1  UNL1        0.1236
     11 C         144.8367  141.1345  157.5994 C.3     1  UNL1        0.1186
     12 C         144.1281  142.1501  158.4458 C.ar    1  UNL1        0.1166
     13 C         144.0953  142.1800  159.9451 C.ar    1  UNL1        0.0600
     14 C         143.2748  143.3626  160.3673 C.ar    1  UNL1        0.1825
     15 O         142.8004  144.0636  159.1290 O.2     1  UNL1       -0.3532
     16 N         143.3278  143.3142  157.9414 N.ar    1  UNL1       -0.0799
     17 C         142.9802  143.7723  161.7800 C.ar    1  UNL1        0.0666
     18 C         141.6309  143.7722  162.4349 C.ar    1  UNL1        0.0102
     19 C         141.8001  144.2538  163.8453 C.ar    1  UNL1        0.0076
     20 C         143.2542  144.5515  164.0621 C.ar    1  UNL1        0.0355
     21 S         143.9835  144.2539  162.7857 S.2     1  UNL1       -0.0833
     22 C         139.2787  138.2238  160.4076 C.3     1  UNL1        0.0604
     23 O         138.0425  143.1978  160.5245 O.2     1  UNL1       -0.2670
     24 C         138.0767  142.5723  161.8874 C.ar    1  UNL1        0.2611
     25 C         137.7662  143.3988  163.1000 C.ar    1  UNL1        0.0623
     26 C         137.8004  142.7732  164.4629 C.ar    1  UNL1        0.0254
     27 C         138.1450  141.3212  164.6132 C.ar    1  UNL1        0.0972
     28 N         138.2540  140.4433  165.8330 N.ar    1  UNL1       -0.2400
     29 C         138.6134  138.9871  165.8270 C.ar    1  UNL1        0.1282
     30 C         138.8993  138.2905  164.5298 C.ar    1  UNL1        0.1588
     31 F         139.2587  136.8342  164.5238 F       1  UNL1       -0.2027
     32 C         138.8258  139.0501  163.2384 C.ar    1  UNL1        0.0500
     33 C         138.4555  140.4946  163.4006 C.ar    1  UNL1        0.0806
     34 N         138.4213  141.1202  162.0377 N.ar    1  UNL1       -0.2915
     35 C         138.7705  140.0623  161.0332 C.3     1  UNL1        0.1402
     36 C         139.0204  138.7829  161.7753 C.3     1  UNL1        0.1335
     37 O         139.3244  137.3866  162.2315 O.3     1  UNL1       -0.3806
     38 H         139.5287  136.8324  161.4621 H       1  UNL1        0.2108
@<TRIPOS>BOND
     1    23    24    2
     2    24    25   ar
     3    25    26   ar
     4    26    27   ar
     5    27    28   ar
     6    28    29   ar
     7    29    30   ar
     8    30    31    1
     9    30    32   ar
    10    32    33   ar
    11    33    34   ar
    12    34    35    1
    13    35    36    1
    14    36    37    1
    15    36    22    1
    16    22     1    1
    17     1     2    1
    18     2     3    1
    19     3     4    1
    20     4     9    1
    21     9    11    1
    22    11    12    1
    23    12    13   ar
    24    13    14   ar
    25    14    17    1
    26    17    18   ar
    27    18    19   ar
    28    19    20   ar
    29    20    21   ar
    30    14    15   ar
    31    15    16   ar
    32     4     5    1
    33     5     6    1
    34     4     7    1
    35     7     8    1
    36    34    24   ar
    37     6     1    1
    38    33    27   ar
    39     8     1    1
    40    36    32    1
    41    16    12   ar
    42    21    17   ar
    43    37    38    1
    44     9    10    1
