@<TRIPOS>MOLECULE
*****
 32 36 0 0 0
SMALL
GASTEIGER

@<TRIPOS>ATOM
      1 C         139.0935  138.3677  165.1742 C.ar    1  UNL1        0.1336
      2 C         138.0039  138.4438  166.2023 C.ar    1  UNL1        0.0346
      3 C         138.2610  139.1138  167.5195 C.ar    1  UNL1        0.0090
      4 C         139.6077  139.7077  167.8086 C.ar    1  UNL1        0.0728
      5 C         140.6973  139.6317  166.7805 C.ar    1  UNL1        0.1048
      6 N         140.4402  138.9617  165.4633 N.ar    1  UNL1       -0.2289
      7 C         139.8647  140.3777  169.1258 C.2     1  UNL1        0.2506
      8 O         138.9012  140.1952  170.2608 O.2     1  UNL1       -0.2699
      9 N         141.0855  141.2302  169.3080 N.am    1  UNL1       -0.2735
     10 C         141.3425  141.9002  170.6252 C.3     1  UNL1        0.1125
     11 C         142.5632  142.7527  170.8074 C.3     1  UNL1        0.1623
     12 O         143.5267  142.9352  169.6725 O.3     1  UNL1       -0.3502
     13 C         143.2696  142.2653  168.3553 C.3     1  UNL1        0.1623
     14 C         142.0490  141.4128  168.1730 C.3     1  UNL1        0.1125
     15 C         140.8284  140.5603  167.9908 C.3     1  UNL1        0.0869
     16 C         139.8647  140.3777  169.1258 C.2     1  UNL1        0.1542
     17 O         138.6441  139.5252  168.9436 O.2     1  UNL1       -0.2959
     18 C         140.1218  141.0477  170.4430 C.3     1  UNL1        0.0869
     19 N         138.8364  137.6978  163.8570 N.pl3   1  UNL1       -0.2781
     20 H         138.3591  136.8372  163.8273 H       1  UNL1        0.1555
     21 C         140.4638  138.7302  160.4878 C.ar    1  UNL1        0.0969
     22 C         139.5959  139.9212  160.7675 C.ar    1  UNL1        0.0578
     23 S         138.8806  139.6795  162.0636 S.2     1  UNL1       -0.0508
     24 C         139.3065  138.3390  162.5850 C.ar    1  UNL1        0.1646
     25 N         140.2849  137.7523  161.6111 N.ar    1  UNL1       -0.2234
     26 C         142.1319  137.9481  155.5395 C.3     1  UNL1        0.0594
     27 C         142.1209  138.1894  157.0199 C.ar    1  UNL1        0.0883
     28 N         143.3278  138.3503  157.8960 N.ar    1  UNL1       -0.2470
     29 C         142.8540  138.5725  159.3017 C.ar    1  UNL1        0.0670
     30 C         143.7267  138.7816  160.5036 C.3     1  UNL1        0.0527
     31 C         141.3542  138.5489  159.2944 C.ar    1  UNL1        0.0623
     32 S         140.9011  138.3121  157.8842 S.2     1  UNL1       -0.0696
@<TRIPOS>BOND
     1    26    27    1
     2    27    28   ar
     3    28    29   ar
     4    29    30    1
     5    29    31   ar
     6    31    21    1
     7    21    22   ar
     8    22    23   ar
     9    23    24   ar
    10    24    19    1
    11    19     1    1
    12     1     2   ar
    13     2     3   ar
    14     3     4   ar
    15     4     7    1
    16     7     8    2
    17     7     9   am
    18     9    10    1
    19    10    11    1
    20    11    12    1
    21    12    13    1
    22    13    14    1
    23    14    15    1
    24    15    16    1
    25    16    17    2
    26    16    18    1
    27     4     5   ar
    28     5     6   ar
    29    24    25   ar
    30    31    32   ar
    31    32    27   ar
    32    25    21   ar
    33     6     1   ar
    34    14     9    1
    35    18    10    1
    36    19    20    1
@<TRIPOS>MOLECULE
*****
 32 36 0 0 0
SMALL
GASTEIGER

@<TRIPOS>ATOM
      1 C         138.2034  140.8119  164.5306 C.ar    1  UNL1        0.1336
      2 C         139.3184  141.7920  164.7452 C.ar    1  UNL1        0.0346
      3 C         140.3242  141.5574  165.8329 C.ar    1  UNL1        0.0090
      4 C         140.2151  140.3427  166.7061 C.ar    1  UNL1        0.0728
      5 C         139.1001  139.3625  166.4915 C.ar    1  UNL1        0.1048
      6 N         138.0942  139.5971  165.4038 N.ar    1  UNL1       -0.2289
      7 C         141.2210  140.1081  167.7938 C.2     1  UNL1        0.2506
      8 O         142.3884  139.1977  167.5522 O.2     1  UNL1       -0.2699
      9 N         141.0594  140.7839  169.1232 N.am    1  UNL1       -0.2735
     10 C         142.0653  140.5493  170.2110 C.3     1  UNL1        0.1125
     11 C         141.9038  141.2250  171.5403 C.3     1  UNL1        0.1623
     12 O         140.7364  142.1354  171.7819 O.3     1  UNL1       -0.3502
     13 C         139.7305  142.3700  170.6942 C.3     1  UNL1        0.1623
     14 C         139.8921  141.6942  169.3648 C.3     1  UNL1        0.1125
     15 C         140.0536  141.0185  168.0355 C.3     1  UNL1        0.0869
     16 C         141.2210  140.1081  167.7938 C.2     1  UNL1        0.1542
     17 O         141.3825  139.4323  166.4644 O.2     1  UNL1       -0.2959
     18 C         142.2269  139.8735  168.8815 C.3     1  UNL1        0.0869
     19 N         137.1975  141.0465  163.4428 N.pl3   1  UNL1       -0.2781
     20 H         136.2464  141.1631  163.6687 H       1  UNL1        0.1555
     21 C         138.4149  141.9333  159.8655 C.ar    1  UNL1        0.0969
     22 C         138.2311  140.4491  159.7495 C.ar    1  UNL1        0.0578
     23 S         137.7526  139.9362  161.0755 S.2     1  UNL1       -0.0508
     24 C         137.6408  141.1035  162.0109 C.ar    1  UNL1        0.1646
     25 N         138.0501  142.3377  161.2631 N.ar    1  UNL1       -0.2234
     26 C         141.0947  145.6377  157.2243 C.3     1  UNL1        0.0594
     27 C         140.1134  144.5545  157.5613 C.ar    1  UNL1        0.0883
     28 N         139.0862  143.9757  156.6340 N.ar    1  UNL1       -0.2470
     29 C         138.3250  142.9233  157.3843 C.ar    1  UNL1        0.0670
     30 C         137.2038  142.0890  156.8392 C.3     1  UNL1        0.0527
     31 C         138.8816  142.8517  158.7753 C.ar    1  UNL1        0.0623
     32 S         139.9870  143.8598  158.8847 S.2     1  UNL1       -0.0696
@<TRIPOS>BOND
     1    26    27    1
     2    27    28   ar
     3    28    29   ar
     4    29    30    1
     5    29    31   ar
     6    31    21    1
     7    21    22   ar
     8    22    23   ar
     9    23    24   ar
    10    24    19    1
    11    19     1    1
    12     1     2   ar
    13     2     3   ar
    14     3     4   ar
    15     4     7    1
    16     7     8    2
    17     7     9   am
    18     9    10    1
    19    10    11    1
    20    11    12    1
    21    12    13    1
    22    13    14    1
    23    14    15    1
    24    15    16    1
    25    16    17    2
    26    16    18    1
    27     4     5   ar
    28     5     6   ar
    29    24    25   ar
    30    31    32   ar
    31    32    27   ar
    32    25    21   ar
    33     6     1   ar
    34    14     9    1
    35    18    10    1
    36    19    20    1
@<TRIPOS>MOLECULE
*****
 32 36 0 0 0
SMALL
GASTEIGER

@<TRIPOS>ATOM
      1 C         138.6040  138.4084  162.6940 C.ar    1  UNL1        0.1336
      2 C         139.2763  137.4745  163.6562 C.ar    1  UNL1        0.0346
      3 C         139.4088  137.8541  165.1013 C.ar    1  UNL1        0.0090
      4 C         138.8688  139.1676  165.5843 C.ar    1  UNL1        0.0728
      5 C         138.1964  140.1015  164.6221 C.ar    1  UNL1        0.1048
      6 N         138.0640  139.7219  163.1770 N.ar    1  UNL1       -0.2289
      7 C         139.0013  139.5472  167.0294 C.2     1  UNL1        0.2506
      8 O         138.0746  138.9537  168.0487 O.2     1  UNL1       -0.2699
      9 N         140.0605  140.5203  167.4552 N.am    1  UNL1       -0.2735
     10 C         140.1929  140.8998  168.9003 C.3     1  UNL1        0.1125
     11 C         141.2521  141.8729  169.3261 C.3     1  UNL1        0.1623
     12 O         142.1788  142.4663  168.3068 O.3     1  UNL1       -0.3502
     13 C         142.0463  142.0867  166.8617 C.3     1  UNL1        0.1623
     14 C         140.9872  141.1137  166.4359 C.3     1  UNL1        0.1125
     15 C         139.9281  140.1407  166.0101 C.3     1  UNL1        0.0869
     16 C         139.0013  139.5472  167.0294 C.2     1  UNL1        0.1542
     17 O         137.9422  138.5741  166.6035 O.2     1  UNL1       -0.2959
     18 C         139.1337  139.9267  168.4745 C.3     1  UNL1        0.0869
     19 N         138.4715  138.0288  161.2489 N.pl3   1  UNL1       -0.2781
     20 H         137.8995  137.2707  160.9895 H       1  UNL1        0.1555
     21 C         140.9650  139.5929  158.7186 C.ar    1  UNL1        0.0969
     22 C         139.7314  140.4024  158.4481 C.ar    1  UNL1        0.0578
     23 S         138.6472  139.9151  159.3630 S.2     1  UNL1       -0.0508
     24 C         139.2107  138.8044  160.1990 C.ar    1  UNL1        0.1646
     25 N         140.6431  138.6053  159.8007 N.ar    1  UNL1       -0.2234
     26 C         145.5051  141.6328  156.9564 C.3     1  UNL1        0.0594
     27 C         144.3748  140.6821  157.2183 C.ar    1  UNL1        0.0883
     28 N         144.2729  139.2733  156.7136 N.ar    1  UNL1       -0.2470
     29 C         142.9831  138.6938  157.2142 C.ar    1  UNL1        0.0670
     30 C         142.4773  137.3070  156.9476 C.3     1  UNL1        0.0527
     31 C         142.2880  139.7445  158.0283 C.ar    1  UNL1        0.0623
     32 S         143.1480  140.9734  158.0308 S.2     1  UNL1       -0.0696
@<TRIPOS>BOND
     1    26    27    1
     2    27    28   ar
     3    28    29   ar
     4    29    30    1
     5    29    31   ar
     6    31    21    1
     7    21    22   ar
     8    22    23   ar
     9    23    24   ar
    10    24    19    1
    11    19     1    1
    12     1     2   ar
    13     2     3   ar
    14     3     4   ar
    15     4     7    1
    16     7     8    2
    17     7     9   am
    18     9    10    1
    19    10    11    1
    20    11    12    1
    21    12    13    1
    22    13    14    1
    23    14    15    1
    24    15    16    1
    25    16    17    2
    26    16    18    1
    27     4     5   ar
    28     5     6   ar
    29    24    25   ar
    30    31    32   ar
    31    32    27   ar
    32    25    21   ar
    33     6     1   ar
    34    14     9    1
    35    18    10    1
    36    19    20    1
@<TRIPOS>MOLECULE
*****
 32 36 0 0 0
SMALL
GASTEIGER

@<TRIPOS>ATOM
      1 C         138.3422  140.5016  164.5462 C.ar    1  UNL1        0.1336
      2 C         138.0323  139.6342  165.7300 C.ar    1  UNL1        0.0346
      3 C         139.0431  139.4726  166.8265 C.ar    1  UNL1        0.0090
      4 C         140.3637  140.1783  166.7391 C.ar    1  UNL1        0.0728
      5 C         140.6737  141.0458  165.5552 C.ar    1  UNL1        0.1048
      6 N         139.6629  141.2074  164.4587 N.ar    1  UNL1       -0.2289
      7 C         141.3745  140.0167  167.8355 C.2     1  UNL1        0.2506
      8 O         142.5862  139.1596  167.6182 O.2     1  UNL1       -0.2699
      9 N         141.1736  140.7121  169.1493 N.am    1  UNL1       -0.2735
     10 C         142.1844  140.5505  170.2458 C.3     1  UNL1        0.1125
     11 C         141.9835  141.2459  171.5595 C.3     1  UNL1        0.1623
     12 O         140.7718  142.1030  171.7768 O.3     1  UNL1       -0.3502
     13 C         139.7610  142.2646  170.6804 C.3     1  UNL1        0.1623
     14 C         139.9619  141.5692  169.3666 C.3     1  UNL1        0.1125
     15 C         140.1628  140.8738  168.0529 C.3     1  UNL1        0.0869
     16 C         141.3745  140.0167  167.8355 C.2     1  UNL1        0.1542
     17 O         141.5754  139.3212  166.5218 O.2     1  UNL1       -0.2959
     18 C         142.3853  139.8550  168.9320 C.3     1  UNL1        0.0869
     19 N         137.3314  140.6633  163.4497 N.pl3   1  UNL1       -0.2781
     20 H         136.3701  140.6036  163.6537 H       1  UNL1        0.1555
     21 C         138.4228  140.5725  159.7259 C.ar    1  UNL1        0.0969
     22 C         138.5448  142.0367  160.0281 C.ar    1  UNL1        0.0578
     23 S         138.1508  142.2489  161.4598 S.2     1  UNL1       -0.0508
     24 C         137.7853  140.9159  162.0425 C.ar    1  UNL1        0.1646
     25 N         137.9534  139.8798  160.9709 N.ar    1  UNL1       -0.2234
     26 C         140.4759  137.3803  156.0552 C.3     1  UNL1        0.0594
     27 C         139.6620  138.4489  156.7227 C.ar    1  UNL1        0.0883
     28 N         138.6841  139.3637  156.0469 N.ar    1  UNL1       -0.2470
     29 C         138.1008  140.2705  157.0897 C.ar    1  UNL1        0.0670
     30 C         137.0794  141.3434  156.8536 C.3     1  UNL1        0.0527
     31 C         138.7183  139.9162  158.4099 C.ar    1  UNL1        0.0623
     32 S         139.6832  138.7904  158.1832 S.2     1  UNL1       -0.0696
@<TRIPOS>BOND
     1    26    27    1
     2    27    28   ar
     3    28    29   ar
     4    29    30    1
     5    29    31   ar
     6    31    21    1
     7    21    22   ar
     8    22    23   ar
     9    23    24   ar
    10    24    19    1
    11    19     1    1
    12     1     2   ar
    13     2     3   ar
    14     3     4   ar
    15     4     7    1
    16     7     8    2
    17     7     9   am
    18     9    10    1
    19    10    11    1
    20    11    12    1
    21    12    13    1
    22    13    14    1
    23    14    15    1
    24    15    16    1
    25    16    17    2
    26    16    18    1
    27     4     5   ar
    28     5     6   ar
    29    24    25   ar
    30    31    32   ar
    31    32    27   ar
    32    25    21   ar
    33     6     1   ar
    34    14     9    1
    35    18    10    1
    36    19    20    1
@<TRIPOS>MOLECULE
*****
 32 36 0 0 0
SMALL
GASTEIGER

@<TRIPOS>ATOM
      1 C         143.4934  138.1740  156.6274 C.ar    1  UNL1        0.1336
      2 C         142.1669  137.6671  157.1105 C.ar    1  UNL1        0.0346
      3 C         141.7610  136.2492  156.8370 C.ar    1  UNL1        0.0090
      4 C         142.6816  135.3381  156.0805 C.ar    1  UNL1        0.0728
      5 C         144.0082  135.8450  155.5973 C.ar    1  UNL1        0.1048
      6 N         144.4141  137.2629  155.8708 N.ar    1  UNL1       -0.2289
      7 C         142.2757  133.9202  155.8070 C.2     1  UNL1        0.2506
      8 O         141.1039  133.6342  154.9153 O.2     1  UNL1       -0.2699
      9 N         143.0416  132.7883  156.4253 N.am    1  UNL1       -0.2735
     10 C         142.6357  131.3704  156.1519 C.3     1  UNL1        0.1125
     11 C         143.4015  130.2385  156.7701 C.3     1  UNL1        0.1623
     12 O         144.5732  130.5245  157.6618 O.3     1  UNL1       -0.3502
     13 C         144.9791  131.9424  157.9353 C.3     1  UNL1        0.1623
     14 C         144.2133  133.0743  157.3170 C.3     1  UNL1        0.1125
     15 C         143.4475  134.2062  156.6988 C.3     1  UNL1        0.0869
     16 C         142.2757  133.9202  155.8070 C.2     1  UNL1        0.1542
     17 O         141.5099  135.0521  155.1887 O.2     1  UNL1       -0.2959
     18 C         141.8698  132.5023  155.5335 C.3     1  UNL1        0.0869
     19 N         143.8993  139.5919  156.9008 N.pl3   1  UNL1       -0.2781
     20 H         144.2783  140.1434  156.1787 H       1  UNL1        0.1555
     21 C         143.6651  140.4015  160.6897 C.ar    1  UNL1        0.0969
     22 C         143.2624  141.7149  160.0872 C.ar    1  UNL1        0.0578
     23 S         143.3011  141.5714  158.5946 S.2     1  UNL1       -0.0508
     24 C         143.7278  140.1695  158.2746 C.ar    1  UNL1        0.1646
     25 N         143.9527  139.4464  159.5694 N.ar    1  UNL1       -0.2234
     26 C         142.8371  138.2409  165.4359 C.3     1  UNL1        0.0594
     27 C         143.3825  139.1037  164.3367 C.ar    1  UNL1        0.0883
     28 N         144.4450  140.1521  164.4837 N.ar    1  UNL1       -0.2470
     29 C         144.6803  140.7659  163.1354 C.ar    1  UNL1        0.0670
     30 C         145.6606  141.8573  162.8224 C.3     1  UNL1        0.0527
     31 C         143.7631  140.0968  162.1552 C.ar    1  UNL1        0.0623
     32 S         142.9610  139.0695  162.8975 S.2     1  UNL1       -0.0696
@<TRIPOS>BOND
     1    26    27    1
     2    27    28   ar
     3    28    29   ar
     4    29    30    1
     5    29    31   ar
     6    31    21    1
     7    21    22   ar
     8    22    23   ar
     9    23    24   ar
    10    24    19    1
    11    19     1    1
    12     1     2   ar
    13     2     3   ar
    14     3     4   ar
    15     4     7    1
    16     7     8    2
    17     7     9   am
    18     9    10    1
    19    10    11    1
    20    11    12    1
    21    12    13    1
    22    13    14    1
    23    14    15    1
    24    15    16    1
    25    16    17    2
    26    16    18    1
    27     4     5   ar
    28     5     6   ar
    29    24    25   ar
    30    31    32   ar
    31    32    27   ar
    32    25    21   ar
    33     6     1   ar
    34    14     9    1
    35    18    10    1
    36    19    20    1
@<TRIPOS>MOLECULE
*****
 32 36 0 0 0
SMALL
GASTEIGER

@<TRIPOS>ATOM
      1 C         140.9434  138.4523  164.3583 C.ar    1  UNL1        0.1336
      2 C         142.1258  138.0958  165.2095 C.ar    1  UNL1        0.0346
      3 C         142.5963  139.0421  166.2740 C.ar    1  UNL1        0.0090
      4 C         141.8843  140.3450  166.4872 C.ar    1  UNL1        0.0728
      5 C         140.7018  140.7016  165.6360 C.ar    1  UNL1        0.1048
      6 N         140.2313  139.7553  164.5715 N.ar    1  UNL1       -0.2289
      7 C         142.3548  141.2913  167.5517 C.2     1  UNL1        0.2506
      8 O         143.3762  142.3400  167.2249 O.2     1  UNL1       -0.2699
      9 N         141.8038  141.1889  168.9432 N.am    1  UNL1       -0.2735
     10 C         142.2742  142.1352  170.0076 C.3     1  UNL1        0.1125
     11 C         141.7233  142.0329  171.3990 C.3     1  UNL1        0.1623
     12 O         140.7018  140.9842  171.7259 O.3     1  UNL1       -0.3502
     13 C         140.2314  140.0378  170.6614 C.3     1  UNL1        0.1623
     14 C         140.7823  140.1402  169.2700 C.3     1  UNL1        0.1125
     15 C         141.3333  140.2426  167.8787 C.3     1  UNL1        0.0869
     16 C         142.3548  141.2913  167.5517 C.2     1  UNL1        0.1542
     17 O         142.9057  141.3937  166.1604 O.2     1  UNL1       -0.2959
     18 C         142.8252  142.2376  168.6162 C.3     1  UNL1        0.0869
     19 N         140.4729  137.5060  163.2938 N.pl3   1  UNL1       -0.2781
     20 H         140.1232  136.6199  163.5424 H       1  UNL1        0.1555
     21 C         141.3758  138.4397  159.6361 C.ar    1  UNL1        0.0969
     22 C         139.8869  138.6223  159.6228 C.ar    1  UNL1        0.0578
     23 S         139.3676  138.2948  160.9914 S.2     1  UNL1       -0.0508
     24 C         140.5353  137.9097  161.8504 C.ar    1  UNL1        0.1646
     25 N         141.7764  137.9993  161.0128 N.ar    1  UNL1       -0.2234
     26 C         143.7819  137.9245  154.9643 C.3     1  UNL1        0.0594
     27 C         143.4073  138.4221  156.3289 C.ar    1  UNL1        0.0883
     28 N         144.0439  139.5706  157.0540 N.ar    1  UNL1       -0.2470
     29 C         143.3604  139.7169  158.3811 C.ar    1  UNL1        0.0670
     30 C         143.6798  140.7414  159.4292 C.3     1  UNL1        0.0527
     31 C         142.3013  138.6590  158.4762 C.ar    1  UNL1        0.0623
     32 S         142.3303  137.8587  157.2079 S.2     1  UNL1       -0.0696
@<TRIPOS>BOND
     1    26    27    1
     2    27    28   ar
     3    28    29   ar
     4    29    30    1
     5    29    31   ar
     6    31    21    1
     7    21    22   ar
     8    22    23   ar
     9    23    24   ar
    10    24    19    1
    11    19     1    1
    12     1     2   ar
    13     2     3   ar
    14     3     4   ar
    15     4     7    1
    16     7     8    2
    17     7     9   am
    18     9    10    1
    19    10    11    1
    20    11    12    1
    21    12    13    1
    22    13    14    1
    23    14    15    1
    24    15    16    1
    25    16    17    2
    26    16    18    1
    27     4     5   ar
    28     5     6   ar
    29    24    25   ar
    30    31    32   ar
    31    32    27   ar
    32    25    21   ar
    33     6     1   ar
    34    14     9    1
    35    18    10    1
    36    19    20    1
@<TRIPOS>MOLECULE
*****
 32 36 0 0 0
SMALL
GASTEIGER

@<TRIPOS>ATOM
      1 C         137.7977  139.7749  162.4261 C.ar    1  UNL1        0.1336
      2 C         138.4974  138.5842  163.0113 C.ar    1  UNL1        0.0346
      3 C         139.0007  138.6293  164.4236 C.ar    1  UNL1        0.0090
      4 C         138.8043  139.8651  165.2507 C.ar    1  UNL1        0.0728
      5 C         138.1046  141.0560  164.6655 C.ar    1  UNL1        0.1048
      6 N         137.6012  141.0108  163.2532 N.ar    1  UNL1       -0.2289
      7 C         139.3076  139.9103  166.6630 C.2     1  UNL1        0.2506
      8 O         138.5477  139.2138  167.7527 O.2     1  UNL1       -0.2699
      9 N         140.5710  140.6519  166.9856 N.am    1  UNL1       -0.2735
     10 C         141.0743  140.6970  168.3980 C.3     1  UNL1        0.1125
     11 C         142.3376  141.4386  168.7206 C.3     1  UNL1        0.1623
     12 O         143.0975  142.1350  167.6310 O.3     1  UNL1       -0.3502
     13 C         142.5942  142.0899  166.2187 C.3     1  UNL1        0.1623
     14 C         141.3309  141.3483  165.8960 C.3     1  UNL1        0.1125
     15 C         140.0677  140.6068  165.5733 C.3     1  UNL1        0.0869
     16 C         139.3076  139.9103  166.6630 C.2     1  UNL1        0.1542
     17 O         138.0444  139.1687  166.3403 O.2     1  UNL1       -0.2959
     18 C         139.8110  139.9554  168.0753 C.3     1  UNL1        0.0869
     19 N         137.2943  139.7298  161.0138 N.pl3   1  UNL1       -0.2781
     20 H         136.3260  139.7301  160.8360 H       1  UNL1        0.1555
     21 C         140.0170  138.9519  158.3589 C.ar    1  UNL1        0.0969
     22 C         139.5076  140.2763  157.8723 C.ar    1  UNL1        0.0578
     23 S         138.4258  140.7289  158.8076 S.2     1  UNL1       -0.0508
     24 C         138.2664  139.6843  159.8722 C.ar    1  UNL1        0.1646
     25 N         139.2498  138.5861  159.5949 N.ar    1  UNL1       -0.2234
     26 C         142.7024  135.9776  154.9206 C.3     1  UNL1        0.0594
     27 C         142.3371  136.7695  156.1410 C.ar    1  UNL1        0.0883
     28 N         143.2100  136.9946  157.3399 N.ar    1  UNL1       -0.2470
     29 C         142.4471  137.8395  158.3167 C.ar    1  UNL1        0.0670
     30 C         142.9418  138.3055  159.6539 C.3     1  UNL1        0.0527
     31 C         141.1027  138.1366  157.7214 C.ar    1  UNL1        0.0623
     32 S         141.0347  137.4754  156.3768 S.2     1  UNL1       -0.0696
@<TRIPOS>BOND
     1    26    27    1
     2    27    28   ar
     3    28    29   ar
     4    29    30    1
     5    29    31   ar
     6    31    21    1
     7    21    22   ar
     8    22    23   ar
     9    23    24   ar
    10    24    19    1
    11    19     1    1
    12     1     2   ar
    13     2     3   ar
    14     3     4   ar
    15     4     7    1
    16     7     8    2
    17     7     9   am
    18     9    10    1
    19    10    11    1
    20    11    12    1
    21    12    13    1
    22    13    14    1
    23    14    15    1
    24    15    16    1
    25    16    17    2
    26    16    18    1
    27     4     5   ar
    28     5     6   ar
    29    24    25   ar
    30    31    32   ar
    31    32    27   ar
    32    25    21   ar
    33     6     1   ar
    34    14     9    1
    35    18    10    1
    36    19    20    1
@<TRIPOS>MOLECULE
*****
 32 36 0 0 0
SMALL
GASTEIGER

@<TRIPOS>ATOM
      1 C         141.6055  144.0518  164.0306 C.ar    1  UNL1        0.1336
      2 C         140.2296  144.2088  164.6071 C.ar    1  UNL1        0.0346
      3 C         139.7805  143.3202  165.7290 C.ar    1  UNL1        0.0090
      4 C         140.7073  142.2746  166.2745 C.ar    1  UNL1        0.0728
      5 C         142.0832  142.1174  165.6981 C.ar    1  UNL1        0.1048
      6 N         142.5323  143.0060  164.5761 N.ar    1  UNL1       -0.2289
      7 C         140.2582  141.3859  167.3964 C.2     1  UNL1        0.2506
      8 O         139.3044  140.2604  167.1259 O.2     1  UNL1       -0.2699
      9 N         140.7630  141.6229  168.7889 N.am    1  UNL1       -0.2735
     10 C         140.3140  140.7343  169.9109 C.3     1  UNL1        0.1125
     11 C         140.8187  140.9713  171.3033 C.3     1  UNL1        0.1623
     12 O         141.7726  142.0968  171.5739 O.3     1  UNL1       -0.3502
     13 C         142.2217  142.9854  170.4519 C.3     1  UNL1        0.1623
     14 C         141.7169  142.7485  169.0595 C.3     1  UNL1        0.1125
     15 C         141.2121  142.5115  167.6670 C.3     1  UNL1        0.0869
     16 C         140.2582  141.3859  167.3964 C.2     1  UNL1        0.1542
     17 O         139.7534  141.1490  166.0039 O.2     1  UNL1       -0.2959
     18 C         139.8091  140.4973  168.5183 C.3     1  UNL1        0.0869
     19 N         142.0546  144.9404  162.9087 N.pl3   1  UNL1       -0.2781
     20 H         142.2771  145.8828  163.0861 H       1  UNL1        0.1555
     21 C         142.8918  143.1003  159.5952 C.ar    1  UNL1        0.0969
     22 C         141.7765  144.0008  159.1530 C.ar    1  UNL1        0.0578
     23 S         141.3272  144.7996  160.3404 S.2     1  UNL1       -0.0508
     24 C         142.1647  144.3929  161.5165 C.ar    1  UNL1        0.1646
     25 N         143.1316  143.3427  161.0559 N.ar    1  UNL1       -0.2234
     26 C         146.0343  141.0879  155.8597 C.3     1  UNL1        0.0594
     27 C         145.0808  141.2032  157.0118 C.ar    1  UNL1        0.0883
     28 N         144.4835  140.0614  157.7796 N.ar    1  UNL1       -0.2470
     29 C         143.5907  140.6331  158.8408 C.ar    1  UNL1        0.0670
     30 C         142.7925  139.8476  159.8387 C.3     1  UNL1        0.0527
     31 C         143.6363  142.1282  158.7289 C.ar    1  UNL1        0.0623
     32 S         144.5573  142.4806  157.5985 S.2     1  UNL1       -0.0696
@<TRIPOS>BOND
     1    26    27    1
     2    27    28   ar
     3    28    29   ar
     4    29    30    1
     5    29    31   ar
     6    31    21    1
     7    21    22   ar
     8    22    23   ar
     9    23    24   ar
    10    24    19    1
    11    19     1    1
    12     1     2   ar
    13     2     3   ar
    14     3     4   ar
    15     4     7    1
    16     7     8    2
    17     7     9   am
    18     9    10    1
    19    10    11    1
    20    11    12    1
    21    12    13    1
    22    13    14    1
    23    14    15    1
    24    15    16    1
    25    16    17    2
    26    16    18    1
    27     4     5   ar
    28     5     6   ar
    29    24    25   ar
    30    31    32   ar
    31    32    27   ar
    32    25    21   ar
    33     6     1   ar
    34    14     9    1
    35    18    10    1
    36    19    20    1
@<TRIPOS>MOLECULE
*****
 32 36 0 0 0
SMALL
GASTEIGER

@<TRIPOS>ATOM
      1 C         141.7277  138.3153  164.4591 C.ar    1  UNL1        0.1336
      2 C         142.8511  138.0904  165.4273 C.ar    1  UNL1        0.0346
      3 C         143.1218  139.0944  166.5084 C.ar    1  UNL1        0.0090
      4 C         142.2693  140.3234  166.6211 C.ar    1  UNL1        0.0728
      5 C         141.1459  140.5484  165.6529 C.ar    1  UNL1        0.1048
      6 N         140.8751  139.5444  164.5718 N.ar    1  UNL1       -0.2289
      7 C         142.5400  141.3274  167.7022 C.2     1  UNL1        0.2506
      8 O         143.4764  142.4709  167.4462 O.2     1  UNL1       -0.2699
      9 N         141.8744  141.1879  169.0392 N.am    1  UNL1       -0.2735
     10 C         142.1451  142.1919  170.1202 C.3     1  UNL1        0.1125
     11 C         141.4795  142.0525  171.4571 C.3     1  UNL1        0.1623
     12 O         140.5431  140.9090  171.7130 O.3     1  UNL1       -0.3502
     13 C         140.2724  139.9049  170.6320 C.3     1  UNL1        0.1623
     14 C         140.9380  140.0444  169.2951 C.3     1  UNL1        0.1125
     15 C         141.6036  140.1839  167.9581 C.3     1  UNL1        0.0869
     16 C         142.5400  141.3274  167.7022 C.2     1  UNL1        0.1542
     17 O         143.2056  141.4669  166.3652 O.2     1  UNL1       -0.2959
     18 C         142.8108  142.3315  168.7832 C.3     1  UNL1        0.0869
     19 N         141.4570  137.3113  163.3781 N.pl3   1  UNL1       -0.2781
     20 H         141.2227  136.3847  163.6143 H       1  UNL1        0.1555
     21 C         140.9279  138.3193  159.6673 C.ar    1  UNL1        0.0969
     22 C         142.4233  138.3738  159.7721 C.ar    1  UNL1        0.0578
     23 S         142.8035  138.0028  161.1749 S.2     1  UNL1       -0.0508
     24 C         141.5431  137.7191  161.9371 C.ar    1  UNL1        0.1646
     25 N         140.3840  137.9147  161.0054 N.ar    1  UNL1       -0.2234
     26 C         138.9720  138.1045  154.7675 C.3     1  UNL1        0.0594
     27 C         139.2196  138.5184  156.1878 C.ar    1  UNL1        0.0883
     28 N         138.5270  139.6326  156.9149 N.ar    1  UNL1       -0.2470
     29 C         139.0826  139.6937  158.3069 C.ar    1  UNL1        0.0670
     30 C         138.6739  140.6613  159.3777 C.3     1  UNL1        0.0527
     31 C         140.1186  138.6172  158.4400 C.ar    1  UNL1        0.0623
     32 S         140.2033  137.8908  157.1304 S.2     1  UNL1       -0.0696
@<TRIPOS>BOND
     1    26    27    1
     2    27    28   ar
     3    28    29   ar
     4    29    30    1
     5    29    31   ar
     6    31    21    1
     7    21    22   ar
     8    22    23   ar
     9    23    24   ar
    10    24    19    1
    11    19     1    1
    12     1     2   ar
    13     2     3   ar
    14     3     4   ar
    15     4     7    1
    16     7     8    2
    17     7     9   am
    18     9    10    1
    19    10    11    1
    20    11    12    1
    21    12    13    1
    22    13    14    1
    23    14    15    1
    24    15    16    1
    25    16    17    2
    26    16    18    1
    27     4     5   ar
    28     5     6   ar
    29    24    25   ar
    30    31    32   ar
    31    32    27   ar
    32    25    21   ar
    33     6     1   ar
    34    14     9    1
    35    18    10    1
    36    19    20    1
