@<TRIPOS>MOLECULE
*****
 30 34 0 0 0
SMALL
GASTEIGER

@<TRIPOS>ATOM
      1 N         141.0268  138.7252  162.5558 N.3     1  UNL1       -0.2725
      2 C         141.1120  137.6973  163.6448 C.3     1  UNL1        0.0738
      3 C         140.8737  138.0947  165.0716 C.3     1  UNL1        0.0376
      4 C         140.5502  139.5200  165.4091 C.3     1  UNL1        0.0841
      5 C         140.4650  140.5479  164.3199 C.3     1  UNL1        0.0376
      6 C         140.7033  140.1505  162.8933 C.3     1  UNL1        0.0738
      7 N         140.3120  139.9174  166.8357 N.am    1  UNL1       -0.2423
      8 C         139.1421  139.5090  167.6811 C.2     1  UNL1        0.3309
      9 O         138.0051  138.6315  167.2482 O.2     1  UNL1       -0.2501
     10 N         139.3088  140.1321  169.0353 N.am    1  UNL1       -0.1647
     11 C         140.5818  140.9256  169.0269 C.2     1  UNL1        0.0706
     12 C         141.2563  141.7518  170.0815 C.3     1  UNL1        0.0705
     13 C         142.5510  142.4454  169.7767 C.2     1  UNL1       -0.0199
     14 C         143.1710  142.3127  168.4172 C.2     1  UNL1       -0.0029
     15 C         142.4963  141.4864  167.3626 C.2     1  UNL1        0.0156
     16 C         141.2017  140.7929  167.6675 C.2     1  UNL1        0.0668
     17 C         141.2650  138.3279  161.1292 C.3     1  UNL1        0.0739
     18 C         142.4827  137.5308  160.7660 C.3     1  UNL1        0.0392
     19 C         143.8472  138.1361  160.9147 C.3     1  UNL1        0.0997
     20 O         143.6446  139.3099  158.1612 O.2     1  UNL1       -0.2745
     21 C         143.9388  140.1966  159.3348 C.2     1  UNL1        0.2297
     22 C         144.1317  141.6702  159.1317 C.3     1  UNL1        0.0919
     23 C         144.4259  142.5569  160.3052 C.3     1  UNL1        0.0567
     24 C         144.5272  141.9700  161.6819 C.ar    1  UNL1        0.0731
     25 N         144.8214  142.8567  162.8554 N.ar    1  UNL1       -0.2469
     26 C         144.9227  142.2698  164.2321 C.ar    1  UNL1        0.0985
     27 C         144.7298  140.7962  164.4352 C.ar    1  UNL1        0.0219
     28 C         144.4356  139.9095  163.2618 C.ar    1  UNL1        0.0177
     29 C         144.3343  140.4964  161.8851 C.ar    1  UNL1        0.0674
     30 N         144.0401  139.6097  160.7115 N.am    1  UNL1       -0.2575
@<TRIPOS>BOND
     1    20    21    2
     2    21    22    1
     3    22    23    1
     4    23    24    1
     5    24    25   ar
     6    25    26   ar
     7    26    27   ar
     8    27    28   ar
     9    28    29   ar
    10    29    30    1
    11    30    19    1
    12    19    18    1
    13    18    17    1
    14    17     1    1
    15     1     2    1
    16     2     3    1
    17     3     4    1
    18     4     7    1
    19     7     8   am
    20     8     9    2
    21     8    10    1
    22    10    11    2
    23    11    12    1
    24    12    13    1
    25    13    14    2
    26    14    15    1
    27    15    16    2
    28     4     5    1
    29     5     6    1
    30    30    21   am
    31     6     1    1
    32    29    24   ar
    33    16     7    1
    34    16    11    1
@<TRIPOS>MOLECULE
*****
 30 34 0 0 0
SMALL
GASTEIGER

@<TRIPOS>ATOM
      1 N         142.7217  139.4870  162.9273 N.3     1  UNL1       -0.2725
      2 C         143.2398  138.7193  164.1072 C.3     1  UNL1        0.0738
      3 C         142.5351  138.8089  165.4284 C.3     1  UNL1        0.0376
      4 C         141.3124  139.6663  165.5697 C.3     1  UNL1        0.0841
      5 C         140.7944  140.4340  164.3897 C.3     1  UNL1        0.0376
      6 C         141.4990  140.3444  163.0686 C.3     1  UNL1        0.0738
      7 N         140.6078  139.7559  166.8908 N.am    1  UNL1       -0.2423
      8 C         139.1564  139.4684  167.1372 C.2     1  UNL1        0.3309
      9 O         138.1548  139.0407  166.1058 O.2     1  UNL1       -0.2501
     10 N         138.8824  139.6836  168.5962 N.am    1  UNL1       -0.1647
     11 C         140.1645  140.1042  169.2515 C.2     1  UNL1        0.0706
     12 C         140.4986  140.4522  170.6717 C.3     1  UNL1        0.0705
     13 C         141.8992  140.8450  171.0381 C.2     1  UNL1       -0.0199
     14 C         142.9656  140.8897  169.9840 C.2     1  UNL1       -0.0029
     15 C         142.6314  140.5416  168.5638 C.2     1  UNL1        0.0156
     16 C         141.2308  140.1489  168.1975 C.2     1  UNL1        0.0668
     17 C         143.4263  139.3973  161.6062 C.3     1  UNL1        0.0739
     18 C         143.3752  140.5512  160.6491 C.3     1  UNL1        0.0392
     19 C         144.2203  141.7662  160.8934 C.3     1  UNL1        0.0997
     20 O         146.0171  141.3358  163.2569 O.2     1  UNL1       -0.2745
     21 C         144.9244  142.3613  163.3224 C.2     1  UNL1        0.2297
     22 C         144.7300  143.1716  164.5696 C.3     1  UNL1        0.0919
     23 C         143.6374  144.1971  164.6351 C.3     1  UNL1        0.0567
     24 C         142.7389  144.4124  163.4534 C.ar    1  UNL1        0.0731
     25 N         141.6462  145.4379  163.5189 N.ar    1  UNL1       -0.2469
     26 C         140.7478  145.6531  162.3371 C.ar    1  UNL1        0.0985
     27 C         140.9422  144.8428  161.0899 C.ar    1  UNL1        0.0219
     28 C         142.0349  143.8173  161.0244 C.ar    1  UNL1        0.0177
     29 C         142.9332  143.6021  162.2061 C.ar    1  UNL1        0.0674
     30 N         144.0260  142.5765  162.1406 N.am    1  UNL1       -0.2575
@<TRIPOS>BOND
     1    20    21    2
     2    21    22    1
     3    22    23    1
     4    23    24    1
     5    24    25   ar
     6    25    26   ar
     7    26    27   ar
     8    27    28   ar
     9    28    29   ar
    10    29    30    1
    11    30    19    1
    12    19    18    1
    13    18    17    1
    14    17     1    1
    15     1     2    1
    16     2     3    1
    17     3     4    1
    18     4     7    1
    19     7     8   am
    20     8     9    2
    21     8    10    1
    22    10    11    2
    23    11    12    1
    24    12    13    1
    25    13    14    2
    26    14    15    1
    27    15    16    2
    28     4     5    1
    29     5     6    1
    30    30    21   am
    31     6     1    1
    32    29    24   ar
    33    16     7    1
    34    16    11    1
@<TRIPOS>MOLECULE
*****
 30 34 0 0 0
SMALL
GASTEIGER

@<TRIPOS>ATOM
      1 N         140.9884  140.1359  162.6783 N.3     1  UNL1       -0.2725
      2 C         142.3881  140.4631  163.1069 C.3     1  UNL1        0.0738
      3 C         142.7295  140.5294  164.5661 C.3     1  UNL1        0.0376
      4 C         141.6713  140.2684  165.5966 C.3     1  UNL1        0.0841
      5 C         140.2715  139.9412  165.1679 C.3     1  UNL1        0.0376
      6 C         139.9301  139.8749  163.7088 C.3     1  UNL1        0.0738
      7 N         142.0127  140.3347  167.0557 N.am    1  UNL1       -0.2423
      8 C         142.8993  139.3792  167.7980 C.2     1  UNL1        0.3309
      9 O         143.6001  138.1897  167.2115 O.2     1  UNL1       -0.2501
     10 N         142.9620  139.8220  169.2297 N.am    1  UNL1       -0.1647
     11 C         142.1141  141.0512  169.3724 C.2     1  UNL1        0.0706
     12 C         141.8006  141.9228  170.5521 C.3     1  UNL1        0.0705
     13 C         140.9002  143.1114  170.3883 C.2     1  UNL1       -0.0199
     14 C         140.3135  143.4282  169.0446 C.2     1  UNL1       -0.0029
     15 C         140.6271  142.5565  167.8648 C.2     1  UNL1        0.0156
     16 C         141.5274  141.3680  168.0287 C.2     1  UNL1        0.0668
     17 C         140.6470  140.0696  161.2193 C.3     1  UNL1        0.0739
     18 C         141.2077  141.0875  160.2708 C.3     1  UNL1        0.0392
     19 C         140.7475  142.5134  160.3429 C.3     1  UNL1        0.0997
     20 O         143.5254  143.6106  160.6252 O.2     1  UNL1       -0.2745
     21 C         142.4924  143.9058  161.6721 C.2     1  UNL1        0.2297
     22 C         142.8484  144.7495  162.8601 C.3     1  UNL1        0.0919
     23 C         141.8155  145.0447  163.9069 C.3     1  UNL1        0.0567
     24 C         140.4265  144.4961  163.7658 C.ar    1  UNL1        0.0731
     25 N         139.3936  144.7913  164.8127 N.ar    1  UNL1       -0.2469
     26 C         138.0047  144.2427  164.6716 C.ar    1  UNL1        0.0985
     27 C         137.6487  143.3989  163.4836 C.ar    1  UNL1        0.0219
     28 C         138.6816  143.1037  162.4367 C.ar    1  UNL1        0.0177
     29 C         140.0705  143.6523  162.5778 C.ar    1  UNL1        0.0674
     30 N         141.1035  143.3572  161.5309 N.am    1  UNL1       -0.2575
@<TRIPOS>BOND
     1    20    21    2
     2    21    22    1
     3    22    23    1
     4    23    24    1
     5    24    25   ar
     6    25    26   ar
     7    26    27   ar
     8    27    28   ar
     9    28    29   ar
    10    29    30    1
    11    30    19    1
    12    19    18    1
    13    18    17    1
    14    17     1    1
    15     1     2    1
    16     2     3    1
    17     3     4    1
    18     4     7    1
    19     7     8   am
    20     8     9    2
    21     8    10    1
    22    10    11    2
    23    11    12    1
    24    12    13    1
    25    13    14    2
    26    14    15    1
    27    15    16    2
    28     4     5    1
    29     5     6    1
    30    30    21   am
    31     6     1    1
    32    29    24   ar
    33    16     7    1
    34    16    11    1
@<TRIPOS>MOLECULE
*****
 30 34 0 0 0
SMALL
GASTEIGER

@<TRIPOS>ATOM
      1 N         138.7257  142.1079  161.8174 N.3     1  UNL1       -0.2725
      2 C         137.9485  142.6459  162.9821 C.3     1  UNL1        0.0738
      3 C         138.2633  142.1806  164.3730 C.3     1  UNL1        0.0376
      4 C         139.3553  141.1774  164.5991 C.3     1  UNL1        0.0841
      5 C         140.1325  140.6395  163.4343 C.3     1  UNL1        0.0376
      6 C         139.8177  141.1048  162.0435 C.3     1  UNL1        0.0738
      7 N         139.6701  140.7122  165.9899 N.am    1  UNL1       -0.2423
      8 C         138.8658  139.7361  166.7963 C.2     1  UNL1        0.3309
      9 O         137.6055  139.0538  166.3534 O.2     1  UNL1       -0.2501
     10 N         139.5431  139.5619  168.1233 N.am    1  UNL1       -0.1647
     11 C         140.7660  140.4305  168.1371 C.2     1  UNL1        0.0706
     12 C         141.8182  140.6658  169.1799 C.3     1  UNL1        0.0705
     13 C         142.9490  141.6121  168.9042 C.2     1  UNL1       -0.0199
     14 C         143.0275  142.3230  167.5856 C.2     1  UNL1       -0.0029
     15 C         141.9752  142.0876  166.5428 C.2     1  UNL1        0.0156
     16 C         140.8445  141.1413  166.8186 C.2     1  UNL1        0.0668
     17 C         138.4109  142.5732  160.4266 C.3     1  UNL1        0.0739
     18 C         139.5212  142.9675  159.4983 C.3     1  UNL1        0.0392
     19 C         140.2682  144.2486  159.7239 C.3     1  UNL1        0.0997
     20 O         139.0818  145.9199  161.9148 O.2     1  UNL1       -0.2745
     21 C         140.4335  145.2952  162.0961 C.2     1  UNL1        0.2297
     22 C         141.1920  145.5063  163.3729 C.3     1  UNL1        0.0919
     23 C         142.5436  144.8817  163.5543 C.3     1  UNL1        0.0567
     24 C         143.1369  144.0460  162.4589 C.ar    1  UNL1        0.0731
     25 N         144.4885  143.4214  162.6403 N.ar    1  UNL1       -0.2469
     26 C         145.0816  142.5858  161.5449 C.ar    1  UNL1        0.0985
     27 C         144.3231  142.3748  160.2681 C.ar    1  UNL1        0.0219
     28 C         142.9715  142.9994  160.0867 C.ar    1  UNL1        0.0177
     29 C         142.3784  143.8350  161.1821 C.ar    1  UNL1        0.0674
     30 N         141.0267  144.4596  161.0007 N.am    1  UNL1       -0.2575
@<TRIPOS>BOND
     1    20    21    2
     2    21    22    1
     3    22    23    1
     4    23    24    1
     5    24    25   ar
     6    25    26   ar
     7    26    27   ar
     8    27    28   ar
     9    28    29   ar
    10    29    30    1
    11    30    19    1
    12    19    18    1
    13    18    17    1
    14    17     1    1
    15     1     2    1
    16     2     3    1
    17     3     4    1
    18     4     7    1
    19     7     8   am
    20     8     9    2
    21     8    10    1
    22    10    11    2
    23    11    12    1
    24    12    13    1
    25    13    14    2
    26    14    15    1
    27    15    16    2
    28     4     5    1
    29     5     6    1
    30    30    21   am
    31     6     1    1
    32    29    24   ar
    33    16     7    1
    34    16    11    1
@<TRIPOS>MOLECULE
*****
 30 34 0 0 0
SMALL
GASTEIGER

@<TRIPOS>ATOM
      1 N         138.0398  139.2844  162.5749 N.3     1  UNL1       -0.2725
      2 C         138.8291  138.2238  163.2833 C.3     1  UNL1        0.0738
      3 C         139.3365  138.4692  164.6734 C.3     1  UNL1        0.0376
      4 C         139.0546  139.7752  165.3551 C.3     1  UNL1        0.0841
      5 C         138.2652  140.8359  164.6466 C.3     1  UNL1        0.0376
      6 C         137.7578  140.5905  163.2565 C.3     1  UNL1        0.0738
      7 N         139.5619  140.0207  166.7451 N.am    1  UNL1       -0.2423
      8 C         138.9276  139.5334  168.0140 C.2     1  UNL1        0.3309
      9 O         137.6745  138.7152  168.1157 O.2     1  UNL1       -0.2501
     10 N         139.7663  140.0080  169.1635 N.am    1  UNL1       -0.1647
     11 C         140.9191  140.7886  168.6050 C.2     1  UNL1        0.0706
     12 C         142.0673  141.4933  169.2643 C.3     1  UNL1        0.0705
     13 C         143.0894  142.2058  168.4290 C.2     1  UNL1       -0.0199
     14 C         142.9631  142.2136  166.9343 C.2     1  UNL1       -0.0029
     15 C         141.8147  141.5089  166.2750 C.2     1  UNL1        0.0156
     16 C         140.7927  140.7964  167.1103 C.2     1  UNL1        0.0668
     17 C         137.5324  139.0390  161.1848 C.3     1  UNL1        0.0739
     18 C         137.7755  140.0541  160.1076 C.3     1  UNL1        0.0392
     19 C         139.1778  140.3769  159.6838 C.3     1  UNL1        0.0997
     20 O         138.8531  143.2711  160.4038 O.2     1  UNL1       -0.2745
     21 C         139.9628  142.4664  161.0133 C.2     1  UNL1        0.2297
     22 C         140.9101  143.1089  161.9827 C.3     1  UNL1        0.0919
     23 C         142.0197  142.3044  162.5921 C.3     1  UNL1        0.0567
     24 C         142.1820  140.8572  162.2321 C.ar    1  UNL1        0.0731
     25 N         143.2916  140.0527  162.8415 N.ar    1  UNL1       -0.2469
     26 C         143.4539  138.6056  162.4815 C.ar    1  UNL1        0.0985
     27 C         142.5066  137.9631  161.5121 C.ar    1  UNL1        0.0219
     28 C         141.3970  138.7677  160.9026 C.ar    1  UNL1        0.0177
     29 C         141.2347  140.2147  161.2627 C.ar    1  UNL1        0.0674
     30 N         140.1251  141.0194  160.6532 N.am    1  UNL1       -0.2575
@<TRIPOS>BOND
     1    20    21    2
     2    21    22    1
     3    22    23    1
     4    23    24    1
     5    24    25   ar
     6    25    26   ar
     7    26    27   ar
     8    27    28   ar
     9    28    29   ar
    10    29    30    1
    11    30    19    1
    12    19    18    1
    13    18    17    1
    14    17     1    1
    15     1     2    1
    16     2     3    1
    17     3     4    1
    18     4     7    1
    19     7     8   am
    20     8     9    2
    21     8    10    1
    22    10    11    2
    23    11    12    1
    24    12    13    1
    25    13    14    2
    26    14    15    1
    27    15    16    2
    28     4     5    1
    29     5     6    1
    30    30    21   am
    31     6     1    1
    32    29    24   ar
    33    16     7    1
    34    16    11    1
@<TRIPOS>MOLECULE
*****
 30 34 0 0 0
SMALL
GASTEIGER

@<TRIPOS>ATOM
      1 N         140.8399  139.9795  163.0480 N.3     1  UNL1       -0.2725
      2 C         141.9456  139.6637  164.0112 C.3     1  UNL1        0.0738
      3 C         141.7077  139.7733  165.4882 C.3     1  UNL1        0.0376
      4 C         140.3642  140.1987  166.0020 C.3     1  UNL1        0.0841
      5 C         139.2585  140.5146  165.0387 C.3     1  UNL1        0.0376
      6 C         139.4964  140.4050  163.5618 C.3     1  UNL1        0.0738
      7 N         140.1263  140.3083  167.4789 N.am    1  UNL1       -0.2423
      8 C         139.0084  139.6622  168.2422 C.2     1  UNL1        0.3309
      9 O         137.9320  138.7930  167.6626 O.2     1  UNL1       -0.2501
     10 N         139.1557  140.0378  169.6869 N.am    1  UNL1       -0.1647
     11 C         140.3648  140.9162  169.8165 C.2     1  UNL1        0.0706
     12 C         140.9970  141.5852  171.0008 C.3     1  UNL1        0.0705
     13 C         142.2291  142.4216  170.8205 C.2     1  UNL1       -0.0199
     14 C         142.8290  142.5888  169.4558 C.2     1  UNL1       -0.0029
     15 C         142.1967  141.9196  168.2715 C.2     1  UNL1        0.0156
     16 C         140.9647  141.0833  168.4519 C.2     1  UNL1        0.0668
     17 C         141.0778  139.8699  161.5711 C.3     1  UNL1        0.0739
     18 C         140.1924  140.6090  160.6119 C.3     1  UNL1        0.0392
     19 C         140.4441  142.0595  160.3244 C.3     1  UNL1        0.0997
     20 O         137.6688  142.8913  161.1026 O.2     1  UNL1       -0.2745
     21 C         138.8548  143.4996  161.7907 C.2     1  UNL1        0.2297
     22 C         138.6531  144.5237  162.8680 C.3     1  UNL1        0.0919
     23 C         139.8391  145.1319  163.5561 C.3     1  UNL1        0.0567
     24 C         141.2268  144.7160  163.1670 C.ar    1  UNL1        0.0731
     25 N         142.4127  145.3242  163.8551 N.ar    1  UNL1       -0.2469
     26 C         143.8004  144.9083  163.4660 C.ar    1  UNL1        0.0985
     27 C         144.0020  143.8842  162.3888 C.ar    1  UNL1        0.0219
     28 C         142.8161  143.2760  161.7006 C.ar    1  UNL1        0.0177
     29 C         141.4285  143.6919  162.0898 C.ar    1  UNL1        0.0674
     30 N         140.2424  143.0837  161.4016 N.am    1  UNL1       -0.2575
@<TRIPOS>BOND
     1    20    21    2
     2    21    22    1
     3    22    23    1
     4    23    24    1
     5    24    25   ar
     6    25    26   ar
     7    26    27   ar
     8    27    28   ar
     9    28    29   ar
    10    29    30    1
    11    30    19    1
    12    19    18    1
    13    18    17    1
    14    17     1    1
    15     1     2    1
    16     2     3    1
    17     3     4    1
    18     4     7    1
    19     7     8   am
    20     8     9    2
    21     8    10    1
    22    10    11    2
    23    11    12    1
    24    12    13    1
    25    13    14    2
    26    14    15    1
    27    15    16    2
    28     4     5    1
    29     5     6    1
    30    30    21   am
    31     6     1    1
    32    29    24   ar
    33    16     7    1
    34    16    11    1
@<TRIPOS>MOLECULE
*****
 30 34 0 0 0
SMALL
GASTEIGER

@<TRIPOS>ATOM
      1 N         141.6887  141.5381  161.9946 N.3     1  UNL1       -0.2725
      2 C         142.1520  140.3557  162.7929 C.3     1  UNL1        0.0738
      3 C         142.4451  140.5071  164.2562 C.3     1  UNL1        0.0376
      4 C         142.2750  141.8408  164.9212 C.3     1  UNL1        0.0841
      5 C         141.8117  143.0233  164.1228 C.3     1  UNL1        0.0376
      6 C         141.5186  142.8719  162.6596 C.3     1  UNL1        0.0738
      7 N         142.5681  141.9922  166.3844 N.am    1  UNL1       -0.2423
      8 C         143.6913  142.7875  166.9809 C.2     1  UNL1        0.3309
      9 O         144.7186  143.5711  166.2189 O.2     1  UNL1       -0.2501
     10 N         143.6069  142.6617  168.4732 N.am    1  UNL1       -0.1647
     11 C         142.4314  141.7886  168.7991 C.2     1  UNL1        0.0706
     12 C         141.8628  141.3170  170.1045 C.3     1  UNL1        0.0705
     13 C         140.6521  140.4315  170.1190 C.2     1  UNL1       -0.0199
     14 C         140.0101  140.0177  168.8279 C.2     1  UNL1       -0.0029
     15 C         140.5788  140.4894  167.5225 C.2     1  UNL1        0.0156
     16 C         141.7894  141.3749  167.5081 C.2     1  UNL1        0.0668
     17 C         141.3956  141.3867  160.5314 C.3     1  UNL1        0.0739
     18 C         140.4993  140.2818  160.0564 C.3     1  UNL1        0.0392
     19 C         139.0355  140.3106  160.3832 C.3     1  UNL1        0.0997
     20 O         138.1364  143.1690  160.5294 O.2     1  UNL1       -0.2745
     21 C         138.1201  142.3136  161.7616 C.2     1  UNL1        0.2297
     22 C         137.6543  142.8875  163.0668 C.3     1  UNL1        0.0919
     23 C         137.6380  142.0322  164.2990 C.3     1  UNL1        0.0567
     24 C         138.0875  140.6029  164.2259 C.ar    1  UNL1        0.0731
     25 N         138.0712  139.7477  165.4580 N.ar    1  UNL1       -0.2469
     26 C         138.5207  138.3185  165.3849 C.ar    1  UNL1        0.0985
     27 C         138.9866  137.7446  164.0796 C.ar    1  UNL1        0.0219
     28 C         139.0029  138.5999  162.8475 C.ar    1  UNL1        0.0177
     29 C         138.5534  140.0291  162.9206 C.ar    1  UNL1        0.0674
     30 N         138.5697  140.8844  161.6885 N.am    1  UNL1       -0.2575
@<TRIPOS>BOND
     1    20    21    2
     2    21    22    1
     3    22    23    1
     4    23    24    1
     5    24    25   ar
     6    25    26   ar
     7    26    27   ar
     8    27    28   ar
     9    28    29   ar
    10    29    30    1
    11    30    19    1
    12    19    18    1
    13    18    17    1
    14    17     1    1
    15     1     2    1
    16     2     3    1
    17     3     4    1
    18     4     7    1
    19     7     8   am
    20     8     9    2
    21     8    10    1
    22    10    11    2
    23    11    12    1
    24    12    13    1
    25    13    14    2
    26    14    15    1
    27    15    16    2
    28     4     5    1
    29     5     6    1
    30    30    21   am
    31     6     1    1
    32    29    24   ar
    33    16     7    1
    34    16    11    1
@<TRIPOS>MOLECULE
*****
 30 34 0 0 0
SMALL
GASTEIGER

@<TRIPOS>ATOM
      1 N         139.3345  138.8743  163.9397 N.3     1  UNL1       -0.2725
      2 C         140.5857  138.4802  164.6669 C.3     1  UNL1        0.0738
      3 C         140.8238  138.9642  166.0667 C.3     1  UNL1        0.0376
      4 C         139.8104  139.8423  166.7390 C.3     1  UNL1        0.0841
      5 C         138.5591  140.2364  166.0117 C.3     1  UNL1        0.0376
      6 C         138.3211  139.7524  164.6121 C.3     1  UNL1        0.0738
      7 N         140.0484  140.3264  168.1387 N.am    1  UNL1       -0.2423
      8 C         139.1479  140.0965  169.3161 C.2     1  UNL1        0.3309
      9 O         137.8515  139.3423  169.3006 O.2     1  UNL1       -0.2501
     10 N         139.7716  140.7533  170.5118 N.am    1  UNL1       -0.1647
     11 C         141.0576  141.3891  170.0733 C.2     1  UNL1        0.0706
     12 C         142.0947  142.1742  170.8202 C.3     1  UNL1        0.0705
     13 C         143.3031  142.6954  170.1003 C.2     1  UNL1       -0.0199
     14 C         143.4742  142.4316  168.6336 C.2     1  UNL1       -0.0029
     15 C         142.4369  141.6464  167.8868 C.2     1  UNL1        0.0156
     16 C         141.2286  141.1252  168.6067 C.2     1  UNL1        0.0668
     17 C         139.0965  138.3903  162.5400 C.3     1  UNL1        0.0739
     18 C         139.9571  138.8894  161.4174 C.3     1  UNL1        0.0392
     19 C         140.0921  140.3634  161.1740 C.3     1  UNL1        0.0997
     20 O         142.9689  139.9152  161.8971 O.2     1  UNL1       -0.2745
     21 C         142.1904  141.0115  162.5620 C.2     1  UNL1        0.2297
     22 C         142.8504  141.8838  163.5885 C.3     1  UNL1        0.0919
     23 C         142.0720  142.9801  164.2534 C.3     1  UNL1        0.0567
     24 C         140.6335  143.2042  163.8919 C.ar    1  UNL1        0.0731
     25 N         139.8551  144.3005  164.5568 N.ar    1  UNL1       -0.2469
     26 C         138.4167  144.5246  164.1953 C.ar    1  UNL1        0.0985
     27 C         137.7567  143.6523  163.1688 C.ar    1  UNL1        0.0219
     28 C         138.5352  142.5560  162.5039 C.ar    1  UNL1        0.0177
     29 C         139.9735  142.3320  162.8654 C.ar    1  UNL1        0.0674
     30 N         140.7520  141.2356  162.2005 N.am    1  UNL1       -0.2575
@<TRIPOS>BOND
     1    20    21    2
     2    21    22    1
     3    22    23    1
     4    23    24    1
     5    24    25   ar
     6    25    26   ar
     7    26    27   ar
     8    27    28   ar
     9    28    29   ar
    10    29    30    1
    11    30    19    1
    12    19    18    1
    13    18    17    1
    14    17     1    1
    15     1     2    1
    16     2     3    1
    17     3     4    1
    18     4     7    1
    19     7     8   am
    20     8     9    2
    21     8    10    1
    22    10    11    2
    23    11    12    1
    24    12    13    1
    25    13    14    2
    26    14    15    1
    27    15    16    2
    28     4     5    1
    29     5     6    1
    30    30    21   am
    31     6     1    1
    32    29    24   ar
    33    16     7    1
    34    16    11    1
@<TRIPOS>MOLECULE
*****
 30 34 0 0 0
SMALL
GASTEIGER

@<TRIPOS>ATOM
      1 N         141.6939  142.8155  163.0240 N.3     1  UNL1       -0.2725
      2 C         141.1382  143.7163  164.0869 C.3     1  UNL1        0.0738
      3 C         140.7215  143.1465  165.4104 C.3     1  UNL1        0.0376
      4 C         140.8604  141.6758  165.6710 C.3     1  UNL1        0.0841
      5 C         141.4161  140.7750  164.6080 C.3     1  UNL1        0.0376
      6 C         141.8328  141.3449  163.2846 C.3     1  UNL1        0.0738
      7 N         140.4436  141.1060  166.9944 N.am    1  UNL1       -0.2423
      8 C         139.3834  140.0677  167.2127 C.2     1  UNL1        0.3309
      9 O         138.5537  139.4169  166.1459 O.2     1  UNL1       -0.2501
     10 N         139.2984  139.7943  168.6852 N.am    1  UNL1       -0.1647
     11 C         140.3062  140.6638  169.3769 C.2     1  UNL1        0.0706
     12 C         140.6708  140.8220  170.8233 C.3     1  UNL1        0.0705
     13 C         141.7432  141.7909  171.2248 C.2     1  UNL1       -0.0199
     14 C         142.4510  142.6016  170.1798 C.2     1  UNL1       -0.0029
     15 C         142.0864  142.4433  168.7334 C.2     1  UNL1        0.0156
     16 C         141.0140  141.4744  168.3320 C.2     1  UNL1        0.0668
     17 C         142.1106  143.3854  161.7006 C.3     1  UNL1        0.0739
     18 C         141.1234  144.1488  160.8684 C.3     1  UNL1        0.0392
     19 C         139.8837  143.4707  160.3650 C.3     1  UNL1        0.0997
     20 O         138.1676  144.8056  162.4322 O.2     1  UNL1       -0.2745
     21 C         138.1930  143.3092  162.3311 C.2     1  UNL1        0.2297
     22 C         137.3604  142.4803  163.2636 C.3     1  UNL1        0.0919
     23 C         137.3857  140.9840  163.1626 C.3     1  UNL1        0.0567
     24 C         138.2438  140.3164  162.1291 C.ar    1  UNL1        0.0731
     25 N         138.2692  138.8201  162.0281 N.ar    1  UNL1       -0.2469
     26 C         139.1272  138.1526  160.9945 C.ar    1  UNL1        0.0985
     27 C         139.9598  138.9815  160.0620 C.ar    1  UNL1        0.0219
     28 C         139.9345  140.4779  160.1630 C.ar    1  UNL1        0.0177
     29 C         139.0764  141.1453  161.1965 C.ar    1  UNL1        0.0674
     30 N         139.0510  142.6418  161.2976 N.am    1  UNL1       -0.2575
@<TRIPOS>BOND
     1    20    21    2
     2    21    22    1
     3    22    23    1
     4    23    24    1
     5    24    25   ar
     6    25    26   ar
     7    26    27   ar
     8    27    28   ar
     9    28    29   ar
    10    29    30    1
    11    30    19    1
    12    19    18    1
    13    18    17    1
    14    17     1    1
    15     1     2    1
    16     2     3    1
    17     3     4    1
    18     4     7    1
    19     7     8   am
    20     8     9    2
    21     8    10    1
    22    10    11    2
    23    11    12    1
    24    12    13    1
    25    13    14    2
    26    14    15    1
    27    15    16    2
    28     4     5    1
    29     5     6    1
    30    30    21   am
    31     6     1    1
    32    29    24   ar
    33    16     7    1
    34    16    11    1
