@<TRIPOS>MOLECULE
*****
 29 31 0 0 0
SMALL
GASTEIGER

@<TRIPOS>ATOM
      1 C         140.0340  138.0039  163.3440 C.ar    1  UNL1        0.1387
      2 C         138.7837  137.6281  164.0825 C.ar    1  UNL1        0.0371
      3 C         138.5366  138.1655  165.4610 C.ar    1  UNL1        0.0078
      4 C         139.5398  139.0788  166.1009 C.ar    1  UNL1        0.0565
      5 C         139.2928  139.6162  167.4793 C.ar    1  UNL1        0.2614
      6 O         138.0425  139.2404  168.2179 O.2     1  UNL1       -0.2670
      7 N         140.2960  140.5295  168.1192 N.ar    1  UNL1       -0.2847
      8 C         141.5463  140.9054  167.3806 C.ar    1  UNL1        0.1318
      9 C         141.7934  140.3680  166.0021 C.ar    1  UNL1        0.0261
     10 C         140.7901  139.4546  165.3623 C.ar    1  UNL1        0.0097
     11 C         141.0372  138.9172  163.9838 C.ar    1  UNL1        0.0371
     12 C         143.0436  140.7438  165.2636 C.ar    1  UNL1        0.0043
     13 C         144.1292  139.7286  165.0614 C.ar    1  UNL1        0.0002
     14 C         145.3795  140.1045  164.3228 C.ar    1  UNL1        0.0023
     15 C         145.5442  141.4955  163.7864 C.ar    1  UNL1        0.0296
     16 C         144.4587  142.5107  163.9885 C.ar    1  UNL1        0.1401
     17 F         144.6233  143.9018  163.4521 F       1  UNL1       -0.2042
     18 C         143.2084  142.1349  164.7271 C.ar    1  UNL1        0.0297
     19 C         140.8317  138.3647  160.8979 C.3     1  UNL1        0.2525
     20 O         140.2810  137.4665  161.9655 O.3     1  UNL1       -0.4714
     21 C         142.5495  141.8187  168.0204 C.1     1  UNL1        0.1180
     22 N         143.5528  142.7320  168.6604 N.1     1  UNL1       -0.1893
     23 C         140.0489  141.0670  169.4976 C.3     1  UNL1        0.1413
     24 C         140.5917  140.3423  170.6936 C.3     1  UNL1        0.1623
     25 O         139.7839  139.2589  171.3444 O.3     1  UNL1       -0.3799
     26 H         138.9433  139.1541  170.8719 H       1  UNL1        0.2105
     27 C         141.9423  140.7011  171.2386 C.3     1  UNL1        0.1683
     28 O         142.2234  142.1065  171.6811 O.3     1  UNL1       -0.3794
     29 H         142.1956  142.6988  170.9134 H       1  UNL1        0.2105
@<TRIPOS>BOND
     1    19    20    1
     2    20     1    1
     3     1     2   ar
     4     2     3   ar
     5     3     4   ar
     6     4     5   ar
     7     5     6    2
     8     5     7   ar
     9     7    23    1
    10    23    24    1
    11    24    25    1
    12    24    27    1
    13    27    28    1
    14     7     8   ar
    15     8    21    1
    16    21    22    3
    17     8     9   ar
    18     9    12    1
    19    12    13   ar
    20    13    14   ar
    21    14    15   ar
    22    15    16   ar
    23    16    17    1
    24    16    18   ar
    25     9    10   ar
    26    10    11   ar
    27    11     1   ar
    28    10     4   ar
    29    18    12   ar
    30    25    26    1
    31    28    29    1
@<TRIPOS>MOLECULE
*****
 29 31 0 0 0
SMALL
GASTEIGER

@<TRIPOS>ATOM
      1 C         139.2793  139.7265  163.6945 C.ar    1  UNL1        0.1387
      2 C         138.1818  139.1502  164.5392 C.ar    1  UNL1        0.0371
      3 C         138.2580  139.2442  166.0343 C.ar    1  UNL1        0.0078
      4 C         139.4318  139.9144  166.6847 C.ar    1  UNL1        0.0565
      5 C         139.5080  140.0084  168.1799 C.ar    1  UNL1        0.2614
      6 O         138.4105  139.4322  169.0245 O.2     1  UNL1       -0.2670
      7 N         140.6817  140.6786  168.8303 N.ar    1  UNL1       -0.2847
      8 C         141.7793  141.2549  167.9857 C.ar    1  UNL1        0.1318
      9 C         141.7030  141.1609  166.4906 C.ar    1  UNL1        0.0261
     10 C         140.5292  140.4906  165.8401 C.ar    1  UNL1        0.0097
     11 C         140.4530  140.3967  164.3450 C.ar    1  UNL1        0.0371
     12 C         142.8005  141.7371  165.6459 C.ar    1  UNL1        0.0043
     13 C         143.9040  140.8532  165.1448 C.ar    1  UNL1        0.0002
     14 C         145.0015  141.4295  164.3001 C.ar    1  UNL1        0.0023
     15 C         144.9955  142.8896  163.9566 C.ar    1  UNL1        0.0296
     16 C         143.8921  143.7735  164.4577 C.ar    1  UNL1        0.1401
     17 F         143.8861  145.2336  164.1143 F       1  UNL1       -0.2042
     18 C         142.7946  143.1973  165.3024 C.ar    1  UNL1        0.0297
     19 C         139.6103  138.3664  161.5058 C.3     1  UNL1        0.2525
     20 O         139.2030  139.6325  162.1994 O.3     1  UNL1       -0.4714
     21 C         142.9530  141.9251  168.6361 C.1     1  UNL1        0.1180
     22 N         144.1268  142.5953  169.2867 N.1     1  UNL1       -0.1893
     23 C         140.7580  140.7726  170.3254 C.3     1  UNL1        0.1413
     24 C         140.8363  142.1154  170.9895 C.3     1  UNL1        0.1623
     25 O         141.9741  142.4291  171.9152 O.3     1  UNL1       -0.3799
     26 H         142.5648  141.6618  171.9731 H       1  UNL1        0.2105
     27 C         139.7768  143.1445  170.7278 C.3     1  UNL1        0.1683
     28 O         140.1596  144.5020  170.2173 O.3     1  UNL1       -0.3794
     29 H         140.6751  144.9683  170.8937 H       1  UNL1        0.2105
@<TRIPOS>BOND
     1    19    20    1
     2    20     1    1
     3     1     2   ar
     4     2     3   ar
     5     3     4   ar
     6     4     5   ar
     7     5     6    2
     8     5     7   ar
     9     7    23    1
    10    23    24    1
    11    24    25    1
    12    24    27    1
    13    27    28    1
    14     7     8   ar
    15     8    21    1
    16    21    22    3
    17     8     9   ar
    18     9    12    1
    19    12    13   ar
    20    13    14   ar
    21    14    15   ar
    22    15    16   ar
    23    16    17    1
    24    16    18   ar
    25     9    10   ar
    26    10    11   ar
    27    11     1   ar
    28    10     4   ar
    29    18    12   ar
    30    25    26    1
    31    28    29    1
@<TRIPOS>MOLECULE
*****
 29 31 0 0 0
SMALL
GASTEIGER

@<TRIPOS>ATOM
      1 C         143.4257  142.9380  163.5682 C.ar    1  UNL1        0.1387
      2 C         144.4001  143.4524  164.5860 C.ar    1  UNL1        0.0371
      3 C         144.1852  143.1651  166.0424 C.ar    1  UNL1        0.0078
      4 C         142.9958  142.3633  166.4811 C.ar    1  UNL1        0.0565
      5 C         142.7809  142.0759  167.9376 C.ar    1  UNL1        0.2614
      6 O         143.7553  142.5903  168.9553 O.2     1  UNL1       -0.2670
      7 N         141.5915  141.2741  168.3763 N.ar    1  UNL1       -0.2847
      8 C         140.6170  140.7596  167.3585 C.ar    1  UNL1        0.1318
      9 C         140.8320  141.0470  165.9021 C.ar    1  UNL1        0.0261
     10 C         142.0214  141.8488  165.4634 C.ar    1  UNL1        0.0097
     11 C         142.2363  142.1362  164.0069 C.ar    1  UNL1        0.0371
     12 C         139.8576  140.5326  164.8843 C.ar    1  UNL1        0.0043
     13 C         138.6851  141.3744  164.4759 C.ar    1  UNL1        0.0002
     14 C         137.7107  140.8599  163.4581 C.ar    1  UNL1        0.0023
     15 C         137.9087  139.5036  162.8488 C.ar    1  UNL1        0.0296
     16 C         139.0811  138.6618  163.2572 C.ar    1  UNL1        0.1401
     17 F         139.2791  137.3055  162.6479 F       1  UNL1       -0.2042
     18 C         140.0555  139.1762  164.2749 C.ar    1  UNL1        0.0297
     19 C         144.7798  142.5798  161.3801 C.3     1  UNL1        0.2525
     20 O         143.6406  143.2254  162.1118 O.3     1  UNL1       -0.4714
     21 C         139.4277  139.9578  167.7972 C.1     1  UNL1        0.1180
     22 N         138.2383  139.1559  168.2360 N.1     1  UNL1       -0.1893
     23 C         141.3766  140.9867  169.8327 C.3     1  UNL1        0.1413
     24 C         141.1275  142.1138  170.7908 C.3     1  UNL1        0.1623
     25 O         142.1119  142.3983  171.8862 O.3     1  UNL1       -0.3799
     26 H         142.8459  141.7664  171.8335 H       1  UNL1        0.2105
     27 C         139.8940  142.9562  170.6533 C.3     1  UNL1        0.1683
     28 O         140.0145  144.4136  170.3195 O.3     1  UNL1       -0.3794
     29 H         140.4477  144.8784  171.0524 H       1  UNL1        0.2105
@<TRIPOS>BOND
     1    19    20    1
     2    20     1    1
     3     1     2   ar
     4     2     3   ar
     5     3     4   ar
     6     4     5   ar
     7     5     6    2
     8     5     7   ar
     9     7    23    1
    10    23    24    1
    11    24    25    1
    12    24    27    1
    13    27    28    1
    14     7     8   ar
    15     8    21    1
    16    21    22    3
    17     8     9   ar
    18     9    12    1
    19    12    13   ar
    20    13    14   ar
    21    14    15   ar
    22    15    16   ar
    23    16    17    1
    24    16    18   ar
    25     9    10   ar
    26    10    11   ar
    27    11     1   ar
    28    10     4   ar
    29    18    12   ar
    30    25    26    1
    31    28    29    1
@<TRIPOS>MOLECULE
*****
 29 31 0 0 0
SMALL
GASTEIGER

@<TRIPOS>ATOM
      1 C         140.8939  142.3536  169.4363 C.ar    1  UNL1        0.1387
      2 C         140.0021  141.2700  169.9658 C.ar    1  UNL1        0.0371
      3 C         139.3433  140.3113  169.0188 C.ar    1  UNL1        0.0078
      4 C         139.5763  140.4362  167.5423 C.ar    1  UNL1        0.0565
      5 C         138.9175  139.4774  166.5953 C.ar    1  UNL1        0.2614
      6 O         138.0257  138.3938  167.1248 O.2     1  UNL1       -0.2670
      7 N         139.1506  139.6023  165.1188 N.ar    1  UNL1       -0.2847
      8 C         140.0424  140.6860  164.5893 C.ar    1  UNL1        0.1318
      9 C         140.7012  141.6447  165.5363 C.ar    1  UNL1        0.0261
     10 C         140.4682  141.5198  167.0128 C.ar    1  UNL1        0.0097
     11 C         141.1270  142.4785  167.9599 C.ar    1  UNL1        0.0371
     12 C         141.5931  142.7283  165.0068 C.ar    1  UNL1        0.0043
     13 C         143.0829  142.5960  165.1206 C.ar    1  UNL1        0.0002
     14 C         143.9747  143.6797  164.5910 C.ar    1  UNL1        0.0023
     15 C         143.3767  144.8956  163.9478 C.ar    1  UNL1        0.0296
     16 C         141.8869  145.0280  163.8341 C.ar    1  UNL1        0.1401
     17 F         141.2889  146.2440  163.1909 F       1  UNL1       -0.2042
     18 C         140.9951  143.9444  164.3636 C.ar    1  UNL1        0.0297
     19 C         143.0258  143.2125  170.6476 C.3     1  UNL1        0.2525
     20 O         141.5527  143.3123  170.3834 O.3     1  UNL1       -0.4714
     21 C         140.2755  140.8109  163.1128 C.1     1  UNL1        0.1180
     22 N         140.5085  140.9357  161.6362 N.1     1  UNL1       -0.1893
     23 C         138.4918  138.6436  164.1718 C.3     1  UNL1        0.1413
     24 C         139.3236  137.8519  163.2067 C.3     1  UNL1        0.1623
     25 O         138.8484  137.6481  161.7986 O.3     1  UNL1       -0.3799
     26 H         137.9932  138.0897  161.6789 H       1  UNL1        0.2105
     27 C         140.6306  137.2641  163.6497 C.3     1  UNL1        0.1683
     28 O         141.6863  136.9340  162.6366 O.3     1  UNL1       -0.3794
     29 H         141.3718  136.2172  162.0637 H       1  UNL1        0.2105
@<TRIPOS>BOND
     1    19    20    1
     2    20     1    1
     3     1     2   ar
     4     2     3   ar
     5     3     4   ar
     6     4     5   ar
     7     5     6    2
     8     5     7   ar
     9     7    23    1
    10    23    24    1
    11    24    25    1
    12    24    27    1
    13    27    28    1
    14     7     8   ar
    15     8    21    1
    16    21    22    3
    17     8     9   ar
    18     9    12    1
    19    12    13   ar
    20    13    14   ar
    21    14    15   ar
    22    15    16   ar
    23    16    17    1
    24    16    18   ar
    25     9    10   ar
    26    10    11   ar
    27    11     1   ar
    28    10     4   ar
    29    18    12   ar
    30    25    26    1
    31    28    29    1
@<TRIPOS>MOLECULE
*****
 29 31 0 0 0
SMALL
GASTEIGER

@<TRIPOS>ATOM
      1 C         144.5311  140.0789  164.6638 C.ar    1  UNL1        0.1387
      2 C         145.4244  141.0436  163.9420 C.ar    1  UNL1        0.0371
      3 C         144.8767  142.3521  163.4544 C.ar    1  UNL1        0.0078
      4 C         143.4356  142.6960  163.6888 C.ar    1  UNL1        0.0565
      5 C         142.8879  144.0045  163.2012 C.ar    1  UNL1        0.2614
      6 O         143.7812  144.9692  162.4794 O.2     1  UNL1       -0.2670
      7 N         141.4468  144.3483  163.4356 N.ar    1  UNL1       -0.2847
      8 C         140.5533  143.3836  164.1575 C.ar    1  UNL1        0.1318
      9 C         141.1010  142.0750  164.6450 C.ar    1  UNL1        0.0261
     10 C         142.5422  141.7312  164.4106 C.ar    1  UNL1        0.0097
     11 C         143.0900  140.4227  164.8982 C.ar    1  UNL1        0.0371
     12 C         140.2077  141.1103  165.3669 C.ar    1  UNL1        0.0043
     13 C         139.3483  140.1581  164.5892 C.ar    1  UNL1        0.0002
     14 C         138.4549  139.1933  165.3112 C.ar    1  UNL1        0.0023
     15 C         138.4209  139.1808  166.8107 C.ar    1  UNL1        0.0296
     16 C         139.2802  140.1330  167.5883 C.ar    1  UNL1        0.1401
     17 F         139.2462  140.1206  169.0879 F       1  UNL1       -0.2042
     18 C         140.1736  141.0978  166.8665 C.ar    1  UNL1        0.0297
     19 C         144.3806  138.0285  166.2523 C.3     1  UNL1        0.2525
     20 O         145.0788  138.7703  165.1513 O.3     1  UNL1       -0.4714
     21 C         139.1122  143.7274  164.3918 C.1     1  UNL1        0.1180
     22 N         137.6710  144.0712  164.6261 N.1     1  UNL1       -0.1893
     23 C         140.8990  145.6569  162.9480 C.3     1  UNL1        0.1413
     24 C         140.2335  145.7381  161.6062 C.3     1  UNL1        0.1623
     25 O         139.0604  146.6509  161.4048 O.3     1  UNL1       -0.3799
     26 H         138.8631  147.1118  162.2352 H       1  UNL1        0.2105
     27 C         140.7411  144.9065  160.4657 C.3     1  UNL1        0.1683
     28 O         142.1312  145.1184  159.9434 O.3     1  UNL1       -0.3794
     29 H         142.1952  145.9996  159.5429 H       1  UNL1        0.2105
@<TRIPOS>BOND
     1    19    20    1
     2    20     1    1
     3     1     2   ar
     4     2     3   ar
     5     3     4   ar
     6     4     5   ar
     7     5     6    2
     8     5     7   ar
     9     7    23    1
    10    23    24    1
    11    24    25    1
    12    24    27    1
    13    27    28    1
    14     7     8   ar
    15     8    21    1
    16    21    22    3
    17     8     9   ar
    18     9    12    1
    19    12    13   ar
    20    13    14   ar
    21    14    15   ar
    22    15    16   ar
    23    16    17    1
    24    16    18   ar
    25     9    10   ar
    26    10    11   ar
    27    11     1   ar
    28    10     4   ar
    29    18    12   ar
    30    25    26    1
    31    28    29    1
@<TRIPOS>MOLECULE
*****
 29 31 0 0 0
SMALL
GASTEIGER

@<TRIPOS>ATOM
      1 C         140.2184  140.8746  169.6356 C.ar    1  UNL1        0.1387
      2 C         141.2573  139.8867  170.0768 C.ar    1  UNL1        0.0371
      3 C         142.2041  139.2960  169.0744 C.ar    1  UNL1        0.0078
      4 C         142.1120  139.6933  167.6310 C.ar    1  UNL1        0.0565
      5 C         143.0588  139.1026  166.6286 C.ar    1  UNL1        0.2614
      6 O         144.0977  138.1147  167.0698 O.2     1  UNL1       -0.2670
      7 N         142.9667  139.4998  165.1852 N.ar    1  UNL1       -0.2847
      8 C         141.9277  140.4878  164.7439 C.ar    1  UNL1        0.1318
      9 C         140.9809  141.0784  165.7463 C.ar    1  UNL1        0.0261
     10 C         141.0731  140.6811  167.1898 C.ar    1  UNL1        0.0097
     11 C         140.1263  141.2718  168.1922 C.ar    1  UNL1        0.0371
     12 C         139.9420  142.0663  165.3051 C.ar    1  UNL1        0.0043
     13 C         140.0956  143.5190  165.6460 C.ar    1  UNL1        0.0002
     14 C         139.0566  144.5069  165.2049 C.ar    1  UNL1        0.0023
     15 C         137.8640  144.0421  164.4228 C.ar    1  UNL1        0.0296
     16 C         137.7103  142.5895  164.0819 C.ar    1  UNL1        0.1401
     17 F         136.5177  142.1247  163.2999 F       1  UNL1       -0.2042
     18 C         138.7493  141.6016  164.5231 C.ar    1  UNL1        0.0297
     19 C         139.4289  142.8938  171.0672 C.3     1  UNL1        0.2525
     20 O         139.2716  141.4652  170.6380 O.3     1  UNL1       -0.4714
     21 C         141.8356  140.8850  163.3005 C.1     1  UNL1        0.1180
     22 N         141.7435  141.2822  161.8569 N.1     1  UNL1       -0.1893
     23 C         143.9135  138.9092  164.1828 C.3     1  UNL1        0.1413
     24 C         144.7412  139.8080  163.3127 C.3     1  UNL1        0.1623
     25 O         144.7008  139.6531  161.8213 O.3     1  UNL1       -0.3799
     26 H         144.0952  138.9324  161.5874 H       1  UNL1        0.2105
     27 C         145.6094  140.8617  163.9340 C.3     1  UNL1        0.1683
     28 O         146.3563  141.8277  163.0629 O.3     1  UNL1       -0.3794
     29 H         147.0250  141.3489  162.5486 H       1  UNL1        0.2105
@<TRIPOS>BOND
     1    19    20    1
     2    20     1    1
     3     1     2   ar
     4     2     3   ar
     5     3     4   ar
     6     4     5   ar
     7     5     6    2
     8     5     7   ar
     9     7    23    1
    10    23    24    1
    11    24    25    1
    12    24    27    1
    13    27    28    1
    14     7     8   ar
    15     8    21    1
    16    21    22    3
    17     8     9   ar
    18     9    12    1
    19    12    13   ar
    20    13    14   ar
    21    14    15   ar
    22    15    16   ar
    23    16    17    1
    24    16    18   ar
    25     9    10   ar
    26    10    11   ar
    27    11     1   ar
    28    10     4   ar
    29    18    12   ar
    30    25    26    1
    31    28    29    1
@<TRIPOS>MOLECULE
*****
 29 31 0 0 0
SMALL
GASTEIGER

@<TRIPOS>ATOM
      1 C         141.6363  141.1564  168.7428 C.ar    1  UNL1        0.1387
      2 C         140.2977  140.6093  169.1413 C.ar    1  UNL1        0.0371
      3 C         139.4254  139.9428  168.1191 C.ar    1  UNL1        0.0078
      4 C         139.8916  139.8233  166.6985 C.ar    1  UNL1        0.0565
      5 C         139.0193  139.1568  165.6763 C.ar    1  UNL1        0.2614
      6 O         137.6807  138.6098  166.0748 O.2     1  UNL1       -0.2670
      7 N         139.4856  139.0374  164.2557 N.ar    1  UNL1       -0.2847
      8 C         140.8242  139.5845  163.8571 C.ar    1  UNL1        0.1318
      9 C         141.6965  140.2510  164.8793 C.ar    1  UNL1        0.0261
     10 C         141.2302  140.3704  166.3000 C.ar    1  UNL1        0.0097
     11 C         142.1026  141.0369  167.3221 C.ar    1  UNL1        0.0371
     12 C         143.0351  140.7981  164.4808 C.ar    1  UNL1        0.0043
     13 C         144.2441  139.9105  164.5002 C.ar    1  UNL1        0.0002
     14 C         145.5828  140.4576  164.1017 C.ar    1  UNL1        0.0023
     15 C         145.7124  141.8923  163.6837 C.ar    1  UNL1        0.0296
     16 C         144.5033  142.7800  163.6643 C.ar    1  UNL1        0.1401
     17 F         144.6329  144.2147  163.2463 F       1  UNL1       -0.2042
     18 C         143.1648  142.2329  164.0628 C.ar    1  UNL1        0.0297
     19 C         142.1474  143.1815  170.2879 C.3     1  UNL1        0.2525
     20 O         142.5086  141.8229  169.7649 O.3     1  UNL1       -0.4714
     21 C         141.2905  139.4651  162.4364 C.1     1  UNL1        0.1180
     22 N         141.7567  139.3457  161.0157 N.1     1  UNL1       -0.1893
     23 C         138.6132  138.3709  163.2335 C.3     1  UNL1        0.1413
     24 C         137.7649  139.2006  162.3159 C.3     1  UNL1        0.1623
     25 O         136.9272  138.5364  161.2637 O.3     1  UNL1       -0.3799
     26 H         137.0490  137.5753  161.3125 H       1  UNL1        0.2105
     27 C         137.7543  140.6945  162.4505 C.3     1  UNL1        0.1683
     28 O         136.6307  141.3743  163.1754 O.3     1  UNL1       -0.3794
     29 H         135.8052  141.2499  162.6815 H       1  UNL1        0.2105
@<TRIPOS>BOND
     1    19    20    1
     2    20     1    1
     3     1     2   ar
     4     2     3   ar
     5     3     4   ar
     6     4     5   ar
     7     5     6    2
     8     5     7   ar
     9     7    23    1
    10    23    24    1
    11    24    25    1
    12    24    27    1
    13    27    28    1
    14     7     8   ar
    15     8    21    1
    16    21    22    3
    17     8     9   ar
    18     9    12    1
    19    12    13   ar
    20    13    14   ar
    21    14    15   ar
    22    15    16   ar
    23    16    17    1
    24    16    18   ar
    25     9    10   ar
    26    10    11   ar
    27    11     1   ar
    28    10     4   ar
    29    18    12   ar
    30    25    26    1
    31    28    29    1
@<TRIPOS>MOLECULE
*****
 29 31 0 0 0
SMALL
GASTEIGER

@<TRIPOS>ATOM
      1 C         138.9879  143.1458  163.8981 C.ar    1  UNL1        0.1387
      2 C         138.7779  144.1145  165.0240 C.ar    1  UNL1        0.0371
      3 C         139.4526  143.8876  166.3443 C.ar    1  UNL1        0.0078
      4 C         140.3373  142.6920  166.5388 C.ar    1  UNL1        0.0565
      5 C         141.0120  142.4651  167.8591 C.ar    1  UNL1        0.2614
      6 O         140.8021  143.4338  168.9849 O.2     1  UNL1       -0.2670
      7 N         141.8967  141.2696  168.0536 N.ar    1  UNL1       -0.2847
      8 C         142.1067  140.3008  166.9278 C.ar    1  UNL1        0.1318
      9 C         141.4320  140.5277  165.6074 C.ar    1  UNL1        0.0261
     10 C         140.5473  141.7234  165.4130 C.ar    1  UNL1        0.0097
     11 C         139.8726  141.9503  164.0926 C.ar    1  UNL1        0.0371
     12 C         141.6420  139.5590  164.4816 C.ar    1  UNL1        0.0043
     13 C         140.7114  138.3951  164.3102 C.ar    1  UNL1        0.0002
     14 C         140.9214  137.4264  163.1843 C.ar    1  UNL1        0.0023
     15 C         142.0620  137.6217  162.2299 C.ar    1  UNL1        0.0296
     16 C         142.9925  138.7856  162.4012 C.ar    1  UNL1        0.1401
     17 F         144.1331  138.9808  161.4468 F       1  UNL1       -0.2042
     18 C         142.7826  139.7542  163.5271 C.ar    1  UNL1        0.0297
     19 C         138.0522  142.2152  161.6602 C.3     1  UNL1        0.2525
     20 O         138.3131  143.3727  162.5778 O.3     1  UNL1       -0.4714
     21 C         142.9914  139.1052  167.1223 C.1     1  UNL1        0.1180
     22 N         143.8762  137.9096  167.3167 N.1     1  UNL1       -0.1893
     23 C         142.5715  141.0427  169.3739 C.3     1  UNL1        0.1413
     24 C         141.7885  140.5008  170.5330 C.3     1  UNL1        0.1623
     25 O         142.3115  140.6573  171.9301 O.3     1  UNL1       -0.3799
     26 H         143.1595  141.1276  171.9071 H       1  UNL1        0.2105
     27 C         140.4824  139.8025  170.2949 C.3     1  UNL1        0.1683
     28 O         139.6747  139.3058  171.4572 O.3     1  UNL1       -0.3794
     29 H         140.1587  138.5958  171.9073 H       1  UNL1        0.2105
@<TRIPOS>BOND
     1    19    20    1
     2    20     1    1
     3     1     2   ar
     4     2     3   ar
     5     3     4   ar
     6     4     5   ar
     7     5     6    2
     8     5     7   ar
     9     7    23    1
    10    23    24    1
    11    24    25    1
    12    24    27    1
    13    27    28    1
    14     7     8   ar
    15     8    21    1
    16    21    22    3
    17     8     9   ar
    18     9    12    1
    19    12    13   ar
    20    13    14   ar
    21    14    15   ar
    22    15    16   ar
    23    16    17    1
    24    16    18   ar
    25     9    10   ar
    26    10    11   ar
    27    11     1   ar
    28    10     4   ar
    29    18    12   ar
    30    25    26    1
    31    28    29    1
@<TRIPOS>MOLECULE
*****
 29 31 0 0 0
SMALL
GASTEIGER

@<TRIPOS>ATOM
      1 C         138.7066  139.1511  166.7782 C.ar    1  UNL1        0.1387
      2 C         138.5258  138.6503  165.3759 C.ar    1  UNL1        0.0371
      3 C         139.4296  139.1386  164.2828 C.ar    1  UNL1        0.0078
      4 C         140.5141  140.1276  164.5921 C.ar    1  UNL1        0.0565
      5 C         141.4179  140.6158  163.4990 C.ar    1  UNL1        0.2614
      6 O         141.2372  140.1151  162.0967 O.2     1  UNL1       -0.2670
      7 N         142.5024  141.6048  163.8083 N.ar    1  UNL1       -0.2847
      8 C         142.6832  142.1056  165.2106 C.ar    1  UNL1        0.1318
      9 C         141.7794  141.6174  166.3037 C.ar    1  UNL1        0.0261
     10 C         140.6948  140.6283  165.9944 C.ar    1  UNL1        0.0097
     11 C         139.7911  140.1401  167.0874 C.ar    1  UNL1        0.0371
     12 C         141.9601  142.1181  167.7060 C.ar    1  UNL1        0.0043
     13 C         143.1721  141.7189  168.4946 C.ar    1  UNL1        0.0002
     14 C         143.3528  142.2197  169.8970 C.ar    1  UNL1        0.0023
     15 C         142.3216  143.1196  170.5107 C.ar    1  UNL1        0.0296
     16 C         141.1096  143.5188  169.7222 C.ar    1  UNL1        0.1401
     17 F         140.0784  144.4187  170.3359 F       1  UNL1       -0.2042
     18 C         140.9289  143.0180  168.3198 C.ar    1  UNL1        0.0297
     19 C         136.8514  137.5331  167.6092 C.3     1  UNL1        0.2525
     20 O         137.8028  138.6628  167.8712 O.3     1  UNL1       -0.4714
     21 C         143.7677  143.0946  165.5199 C.1     1  UNL1        0.1180
     22 N         144.8523  144.0836  165.8292 N.1     1  UNL1       -0.1893
     23 C         143.4062  142.0931  162.7152 C.3     1  UNL1        0.1413
     24 C         144.6441  141.3217  162.3649 C.3     1  UNL1        0.1623
     25 O         145.9925  141.8490  162.7572 O.3     1  UNL1       -0.3799
     26 H         145.8863  142.6913  163.2263 H       1  UNL1        0.2105
     27 C         144.5336  140.0230  161.6225 C.3     1  UNL1        0.1683
     28 O         144.2017  138.7616  162.3631 O.3     1  UNL1       -0.3794
     29 H         144.9273  138.5414  162.9681 H       1  UNL1        0.2105
@<TRIPOS>BOND
     1    19    20    1
     2    20     1    1
     3     1     2   ar
     4     2     3   ar
     5     3     4   ar
     6     4     5   ar
     7     5     6    2
     8     5     7   ar
     9     7    23    1
    10    23    24    1
    11    24    25    1
    12    24    27    1
    13    27    28    1
    14     7     8   ar
    15     8    21    1
    16    21    22    3
    17     8     9   ar
    18     9    12    1
    19    12    13   ar
    20    13    14   ar
    21    14    15   ar
    22    15    16   ar
    23    16    17    1
    24    16    18   ar
    25     9    10   ar
    26    10    11   ar
    27    11     1   ar
    28    10     4   ar
    29    18    12   ar
    30    25    26    1
    31    28    29    1
