@<TRIPOS>MOLECULE
*****
 37 40 0 0 0
SMALL
GASTEIGER

@<TRIPOS>ATOM
      1 C         143.8255  142.8788  160.4668 C.ar    1  UNL1        0.0887
      2 C         142.9145  143.7388  161.2916 C.ar    1  UNL1        0.0375
      3 C         141.7047  144.3665  160.6650 C.ar    1  UNL1        0.1088
      4 C         141.4060  144.1340  159.2136 C.ar    1  UNL1        0.1552
      5 C         142.3171  143.2739  158.3887 C.ar    1  UNL1        0.0544
      6 C         143.5268  142.6463  159.0154 C.ar    1  UNL1        0.0703
      7 O         140.1963  144.7616  158.5869 O.3     1  UNL1       -0.4701
      8 C         140.3508  145.9459  157.6794 C.3     1  UNL1        0.2525
      9 N         144.4378  141.7863  158.1905 N.pl3   1  UNL1       -0.2820
     10 C         144.3489  140.7102  158.0175 C.3     1  UNL1        0.1174
     11 C         145.6201  142.3956  157.4970 C.2     1  UNL1        0.0815
     12 C         146.0966  141.8314  156.1914 C.2     1  UNL1        0.0778
     13 N         147.2788  142.4407  155.4980 N.pl3   1  UNL1       -0.3021
     14 C         148.6557  141.9008  155.7485 C.3     1  UNL1        0.1123
     15 C         147.0843  143.5900  154.5539 C.3     1  UNL1        0.1123
     16 N         145.0352  142.2512  161.0935 N.am    1  UNL1       -0.1741
     17 C         144.8723  141.1685  162.1187 C.2     1  UNL1        0.2692
     18 O         144.3830  140.2003  161.9814 O.2     1  UNL1       -0.2680
     19 C         144.8834  142.4664  164.3694 C.2     1  UNL1        0.0049
     20 C         145.4124  141.3606  163.5049 C.2     1  UNL1        0.0598
     21 N         140.7937  145.2265  161.4899 N.pl3   1  UNL1       -0.1745
     22 C         139.9526  144.6098  162.5680 C.ar    1  UNL1        0.2409
     23 N         138.4576  144.7127  162.5040 N.ar    1  UNL1       -0.2106
     24 C         137.6165  144.0960  163.5820 C.ar    1  UNL1        0.1034
     25 C         138.2705  143.3763  164.7241 C.ar    1  UNL1        0.0400
     26 C         139.7657  143.2734  164.7881 C.ar    1  UNL1        0.0873
     27 N         140.6067  143.8901  163.7100 N.ar    1  UNL1       -0.2121
     28 C         140.4197  142.5537  165.9302 C.ar    1  UNL1        0.0364
     29 C         140.3326  142.9350  167.3783 C.ar    1  UNL1        0.0774
     30 N         141.1348  141.9433  168.1677 N.ar    1  UNL1       -0.3240
     31 C         141.3213  141.9453  169.6561 C.3     1  UNL1        0.1305
     32 C         141.7176  140.9491  167.2075 C.ar    1  UNL1        0.0600
     33 C         142.5935  139.7491  167.4137 C.ar    1  UNL1        0.0172
     34 C         143.0276  138.9263  166.2370 C.ar    1  UNL1        0.0015
     35 C         142.5857  139.3036  164.8541 C.ar    1  UNL1        0.0001
     36 C         141.7097  140.5036  164.6479 C.ar    1  UNL1        0.0015
     37 C         141.2756  141.3264  165.8246 C.ar    1  UNL1        0.0187
@<TRIPOS>BOND
     1    19    20    2
     2    20    17    1
     3    17    18    2
     4    17    16   am
     5    16     1    1
     6     1     2   ar
     7     2     3   ar
     8     3    21    1
     9    21    22    1
    10    22    23   ar
    11    23    24   ar
    12    24    25   ar
    13    25    26   ar
    14    26    28    1
    15    28    29   ar
    16    29    30   ar
    17    30    31    1
    18    30    32   ar
    19    32    33   ar
    20    33    34   ar
    21    34    35   ar
    22    35    36   ar
    23    36    37   ar
    24    26    27   ar
    25     3     4   ar
    26     4     7    1
    27     7     8    1
    28     4     5   ar
    29     5     6   ar
    30     6     9    1
    31     9    10    1
    32     9    11    1
    33    11    12    2
    34    12    13    1
    35    13    14    1
    36    13    15    1
    37     6     1   ar
    38    27    22   ar
    39    37    28   ar
    40    37    32   ar
@<TRIPOS>MOLECULE
*****
 37 40 0 0 0
SMALL
GASTEIGER

@<TRIPOS>ATOM
      1 C         139.3783  139.1729  161.0721 C.ar    1  UNL1        0.0887
      2 C         138.6244  140.1515  161.9230 C.ar    1  UNL1        0.0375
      3 C         138.4431  141.5660  161.4579 C.ar    1  UNL1        0.1088
      4 C         139.0157  142.0020  160.1418 C.ar    1  UNL1        0.1552
      5 C         139.7697  141.0233  159.2909 C.ar    1  UNL1        0.0544
      6 C         139.9509  139.6088  159.7560 C.ar    1  UNL1        0.0703
      7 O         138.8345  143.4164  159.6767 O.3     1  UNL1       -0.4701
      8 C         140.0046  144.3548  159.6556 C.3     1  UNL1        0.2525
      9 N         140.7048  138.6304  158.9051 N.pl3   1  UNL1       -0.2820
     10 C         141.7526  138.3361  159.0117 C.3     1  UNL1        0.1174
     11 C         140.0153  137.9402  157.7657 C.2     1  UNL1        0.0815
     12 C         140.8234  137.3270  156.6608 C.2     1  UNL1        0.0778
     13 N         140.1339  136.6369  155.5214 N.pl3   1  UNL1       -0.3021
     14 C         138.7752  137.0936  155.0795 C.3     1  UNL1        0.1123
     15 C         140.8031  135.4898  154.8238 C.3     1  UNL1        0.1123
     16 N         139.5595  137.7584  161.5373 N.am    1  UNL1       -0.1741
     17 C         140.6528  137.4224  162.5077 C.2     1  UNL1        0.2692
     18 O         141.7179  137.3115  162.2867 O.2     1  UNL1       -0.2680
     19 C         139.0767  137.7824  164.5416 C.2     1  UNL1        0.0049
     20 C         140.3285  137.2000  163.9553 C.2     1  UNL1        0.0598
     21 N         137.6892  142.5445  162.3088 N.pl3   1  UNL1       -0.1745
     22 C         138.2639  142.9988  163.6178 C.ar    1  UNL1        0.2409
     23 N         138.0881  144.4210  164.0608 N.ar    1  UNL1       -0.2106
     24 C         138.6628  144.8753  165.3697 C.ar    1  UNL1        0.1034
     25 C         139.4134  143.9074  166.2356 C.ar    1  UNL1        0.0400
     26 C         139.5892  142.4851  165.7925 C.ar    1  UNL1        0.0873
     27 N         139.0145  142.0309  164.4836 N.ar    1  UNL1       -0.2121
     28 C         140.3398  141.5171  166.6584 C.ar    1  UNL1        0.0364
     29 C         140.1107  141.2825  168.1221 C.ar    1  UNL1        0.0774
     30 N         141.0806  140.2342  168.5808 N.ar    1  UNL1       -0.3240
     31 C         141.2008  139.6940  169.9750 C.3     1  UNL1        0.1305
     32 C         141.9092  139.8211  167.4007 C.ar    1  UNL1        0.0600
     33 C         143.0214  138.8253  167.2545 C.ar    1  UNL1        0.0172
     34 C         143.6758  138.6225  165.9201 C.ar    1  UNL1        0.0015
     35 C         143.2180  139.4154  164.7320 C.ar    1  UNL1        0.0001
     36 C         142.1058  140.4111  164.8782 C.ar    1  UNL1        0.0015
     37 C         141.4514  140.6140  166.2125 C.ar    1  UNL1        0.0187
@<TRIPOS>BOND
     1    19    20    2
     2    20    17    1
     3    17    18    2
     4    17    16   am
     5    16     1    1
     6     1     2   ar
     7     2     3   ar
     8     3    21    1
     9    21    22    1
    10    22    23   ar
    11    23    24   ar
    12    24    25   ar
    13    25    26   ar
    14    26    28    1
    15    28    29   ar
    16    29    30   ar
    17    30    31    1
    18    30    32   ar
    19    32    33   ar
    20    33    34   ar
    21    34    35   ar
    22    35    36   ar
    23    36    37   ar
    24    26    27   ar
    25     3     4   ar
    26     4     7    1
    27     7     8    1
    28     4     5   ar
    29     5     6   ar
    30     6     9    1
    31     9    10    1
    32     9    11    1
    33    11    12    2
    34    12    13    1
    35    13    14    1
    36    13    15    1
    37     6     1   ar
    38    27    22   ar
    39    37    28   ar
    40    37    32   ar
@<TRIPOS>MOLECULE
*****
 37 40 0 0 0
SMALL
GASTEIGER

@<TRIPOS>ATOM
      1 C         143.8651  142.9592  160.6083 C.ar    1  UNL1        0.0887
      2 C         142.9769  143.7678  161.5067 C.ar    1  UNL1        0.0375
      3 C         141.8006  144.5024  160.9349 C.ar    1  UNL1        0.1088
      4 C         141.5126  144.4282  159.4647 C.ar    1  UNL1        0.1552
      5 C         142.4009  143.6195  158.5662 C.ar    1  UNL1        0.0544
      6 C         143.5772  142.8850  159.1381 C.ar    1  UNL1        0.0703
      7 O         140.3364  145.1627  158.8928 O.3     1  UNL1       -0.4701
      8 C         140.4582  145.8597  157.5701 C.3     1  UNL1        0.2525
      9 N         144.4654  142.0764  158.2397 N.pl3   1  UNL1       -0.2820
     10 C         145.2893  142.4459  157.6228 C.3     1  UNL1        0.1174
     11 C         144.2637  140.5947  158.1216 C.2     1  UNL1        0.0815
     12 C         143.2330  140.0510  157.1771 C.2     1  UNL1        0.0778
     13 N         143.0314  138.5693  157.0591 N.pl3   1  UNL1       -0.3021
     14 C         142.5884  137.7753  158.2520 C.3     1  UNL1        0.1123
     15 C         143.2727  137.8817  155.7480 C.3     1  UNL1        0.1123
     16 N         145.0413  142.2247  161.1802 N.am    1  UNL1       -0.1741
     17 C         144.8456  141.2630  162.3145 C.2     1  UNL1        0.2692
     18 O         144.2930  140.3197  162.2898 O.2     1  UNL1       -0.2680
     19 C         144.7959  142.5666  164.5614 C.2     1  UNL1        0.0049
     20 C         145.4420  141.5575  163.6590 C.2     1  UNL1        0.0598
     21 N         140.9124  145.3110  161.8333 N.pl3   1  UNL1       -0.1745
     22 C         140.0431  144.6241  162.8444 C.ar    1  UNL1        0.2409
     23 N         138.5519  144.6359  162.6830 N.ar    1  UNL1       -0.2106
     24 C         137.6826  143.9490  163.6941 C.ar    1  UNL1        0.1034
     25 C         138.3045  143.2502  164.8667 C.ar    1  UNL1        0.0400
     26 C         139.7958  143.2384  165.0282 C.ar    1  UNL1        0.0873
     27 N         140.6650  143.9254  164.0170 N.ar    1  UNL1       -0.2121
     28 C         140.4177  142.5397  166.2008 C.ar    1  UNL1        0.0364
     29 C         140.2825  142.9413  167.6397 C.ar    1  UNL1        0.0774
     30 N         141.0652  141.9665  168.4685 N.ar    1  UNL1       -0.3240
     31 C         141.2046  141.9913  169.9618 C.3     1  UNL1        0.1305
     32 C         141.6843  140.9624  167.5418 C.ar    1  UNL1        0.0600
     33 C         142.5607  139.7713  167.7932 C.ar    1  UNL1        0.0172
     34 C         143.0369  138.9345  166.6430 C.ar    1  UNL1        0.0015
     35 C         142.6367  139.2888  165.2415 C.ar    1  UNL1        0.0001
     36 C         141.7603  140.4799  164.9901 C.ar    1  UNL1        0.0015
     37 C         141.2841  141.3167  166.1403 C.ar    1  UNL1        0.0187
@<TRIPOS>BOND
     1    19    20    2
     2    20    17    1
     3    17    18    2
     4    17    16   am
     5    16     1    1
     6     1     2   ar
     7     2     3   ar
     8     3    21    1
     9    21    22    1
    10    22    23   ar
    11    23    24   ar
    12    24    25   ar
    13    25    26   ar
    14    26    28    1
    15    28    29   ar
    16    29    30   ar
    17    30    31    1
    18    30    32   ar
    19    32    33   ar
    20    33    34   ar
    21    34    35   ar
    22    35    36   ar
    23    36    37   ar
    24    26    27   ar
    25     3     4   ar
    26     4     7    1
    27     7     8    1
    28     4     5   ar
    29     5     6   ar
    30     6     9    1
    31     9    10    1
    32     9    11    1
    33    11    12    2
    34    12    13    1
    35    13    14    1
    36    13    15    1
    37     6     1   ar
    38    27    22   ar
    39    37    28   ar
    40    37    32   ar
@<TRIPOS>MOLECULE
*****
 37 40 0 0 0
SMALL
GASTEIGER

@<TRIPOS>ATOM
      1 C         140.8592  144.2831  160.8134 C.ar    1  UNL1        0.0887
      2 C         141.8972  143.9848  161.8544 C.ar    1  UNL1        0.0375
      3 C         143.2179  143.3994  161.4507 C.ar    1  UNL1        0.1088
      4 C         143.5007  143.1122  160.0059 C.ar    1  UNL1        0.1552
      5 C         142.4627  143.4105  158.9648 C.ar    1  UNL1        0.0544
      6 C         141.1420  143.9959  159.3686 C.ar    1  UNL1        0.0703
      7 O         144.8214  142.5268  159.6021 O.3     1  UNL1       -0.4701
      8 C         145.1252  142.2905  158.1523 C.3     1  UNL1        0.2525
      9 N         140.1042  144.2941  158.3275 N.pl3   1  UNL1       -0.2820
     10 C         139.2865  143.6422  158.0077 C.3     1  UNL1        0.1174
     11 C         140.1241  145.6075  157.6032 C.2     1  UNL1        0.0815
     12 C         139.5582  145.7086  156.2177 C.2     1  UNL1        0.0778
     13 N         139.5781  147.0220  155.4935 N.pl3   1  UNL1       -0.3021
     14 C         138.8084  148.1895  156.0361 C.3     1  UNL1        0.1123
     15 C         140.3677  147.1679  154.2264 C.3     1  UNL1        0.1123
     16 N         139.5385  144.8685  161.2172 N.am    1  UNL1       -0.1741
     17 C         138.8708  144.4122  162.4805 C.2     1  UNL1        0.2692
     18 O         138.8505  144.9356  163.4403 O.2     1  UNL1       -0.2680
     19 C         137.7425  142.4940  163.8212 C.2     1  UNL1        0.0049
     20 C         138.1312  143.1075  162.5088 C.2     1  UNL1        0.0598
     21 N         144.2557  143.1012  162.4918 N.pl3   1  UNL1       -0.1745
     22 C         144.1104  141.8953  163.3719 C.ar    1  UNL1        0.2409
     23 N         145.0630  140.7451  163.2315 N.ar    1  UNL1       -0.2106
     24 C         144.9176  139.5392  164.1116 C.ar    1  UNL1        0.1034
     25 C         143.8197  139.4835  165.1322 C.ar    1  UNL1        0.0400
     26 C         142.8671  140.6337  165.2726 C.ar    1  UNL1        0.0873
     27 N         143.0125  141.8395  164.3925 N.ar    1  UNL1       -0.2121
     28 C         141.7692  140.5780  166.2931 C.ar    1  UNL1        0.0364
     29 C         141.7269  141.3389  167.5851 C.ar    1  UNL1        0.0774
     30 N         140.4524  140.9827  168.2913 N.ar    1  UNL1       -0.3240
     31 C         140.0023  141.5142  169.6198 C.3     1  UNL1        0.1305
     32 C         139.7070  140.0016  167.4358 C.ar    1  UNL1        0.0600
     33 C         138.3923  139.3037  167.6217 C.ar    1  UNL1        0.0172
     34 C         137.8915  138.3557  166.5727 C.ar    1  UNL1        0.0015
     35 C         138.7054  138.1056  165.3378 C.ar    1  UNL1        0.0001
     36 C         140.0200  138.8035  165.1518 C.ar    1  UNL1        0.0015
     37 C         140.5208  139.7515  166.2008 C.ar    1  UNL1        0.0187
@<TRIPOS>BOND
     1    19    20    2
     2    20    17    1
     3    17    18    2
     4    17    16   am
     5    16     1    1
     6     1     2   ar
     7     2     3   ar
     8     3    21    1
     9    21    22    1
    10    22    23   ar
    11    23    24   ar
    12    24    25   ar
    13    25    26   ar
    14    26    28    1
    15    28    29   ar
    16    29    30   ar
    17    30    31    1
    18    30    32   ar
    19    32    33   ar
    20    33    34   ar
    21    34    35   ar
    22    35    36   ar
    23    36    37   ar
    24    26    27   ar
    25     3     4   ar
    26     4     7    1
    27     7     8    1
    28     4     5   ar
    29     5     6   ar
    30     6     9    1
    31     9    10    1
    32     9    11    1
    33    11    12    2
    34    12    13    1
    35    13    14    1
    36    13    15    1
    37     6     1   ar
    38    27    22   ar
    39    37    28   ar
    40    37    32   ar
@<TRIPOS>MOLECULE
*****
 37 40 0 0 0
SMALL
GASTEIGER

@<TRIPOS>ATOM
      1 C         140.1503  143.9844  160.6187 C.ar    1  UNL1        0.0887
      2 C         139.2281  143.1185  161.4248 C.ar    1  UNL1        0.0375
      3 C         138.4425  142.0309  160.7538 C.ar    1  UNL1        0.1088
      4 C         138.5792  141.8093  159.2765 C.ar    1  UNL1        0.1552
      5 C         139.5015  142.6752  158.4704 C.ar    1  UNL1        0.0544
      6 C         140.2870  143.7627  159.1415 C.ar    1  UNL1        0.0703
      7 O         137.7937  140.7218  158.6054 O.3     1  UNL1       -0.4701
      8 C         137.2834  140.9179  157.2087 C.3     1  UNL1        0.2525
      9 N         141.2091  144.6285  158.3353 N.pl3   1  UNL1       -0.2820
     10 C         142.2681  144.4494  158.1297 C.3     1  UNL1        0.1174
     11 C         140.6969  145.8930  157.7117 C.2     1  UNL1        0.0815
     12 C         140.2781  145.9027  156.2714 C.2     1  UNL1        0.0778
     13 N         139.7659  147.1672  155.6479 N.pl3   1  UNL1       -0.3021
     14 C         140.2466  147.5815  154.2888 C.3     1  UNL1        0.1123
     15 C         138.7729  148.0174  156.3835 C.3     1  UNL1        0.1123
     16 N         140.9358  145.0718  161.2898 N.am    1  UNL1       -0.1741
     17 C         140.8493  145.2512  162.7765 C.2     1  UNL1        0.2692
     18 O         139.9691  145.5474  163.3536 O.2     1  UNL1       -0.2680
     19 C         143.3663  144.6454  162.9966 C.2     1  UNL1        0.0049
     20 C         142.0593  145.0173  163.6317 C.2     1  UNL1        0.0598
     21 N         137.5204  141.1651  161.5599 N.pl3   1  UNL1       -0.1745
     22 C         138.0838  140.1507  162.5105 C.ar    1  UNL1        0.2409
     23 N         138.1354  138.7036  162.1190 N.ar    1  UNL1       -0.2106
     24 C         138.6988  137.6892  163.0695 C.ar    1  UNL1        0.1034
     25 C         139.2106  138.1218  164.4115 C.ar    1  UNL1        0.0400
     26 C         139.1589  139.5690  164.8030 C.ar    1  UNL1        0.0873
     27 N         138.5955  140.5834  163.8525 N.ar    1  UNL1       -0.2121
     28 C         139.6707  140.0017  166.1450 C.ar    1  UNL1        0.0364
     29 C         139.0364  139.6986  167.4700 C.ar    1  UNL1        0.0774
     30 N         139.8803  140.3230  168.5414 N.ar    1  UNL1       -0.3240
     31 C         139.6150  140.2681  170.0168 C.3     1  UNL1        0.1305
     32 C         141.0362  141.0119  167.8786 C.ar    1  UNL1        0.0600
     33 C         142.1899  141.7944  168.4323 C.ar    1  UNL1        0.0172
     34 C         143.2140  142.3783  167.5048 C.ar    1  UNL1        0.0015
     35 C         143.0844  142.1798  166.0237 C.ar    1  UNL1        0.0001
     36 C         141.9307  141.3973  165.4700 C.ar    1  UNL1        0.0015
     37 C         140.9066  140.8133  166.3974 C.ar    1  UNL1        0.0187
@<TRIPOS>BOND
     1    19    20    2
     2    20    17    1
     3    17    18    2
     4    17    16   am
     5    16     1    1
     6     1     2   ar
     7     2     3   ar
     8     3    21    1
     9    21    22    1
    10    22    23   ar
    11    23    24   ar
    12    24    25   ar
    13    25    26   ar
    14    26    28    1
    15    28    29   ar
    16    29    30   ar
    17    30    31    1
    18    30    32   ar
    19    32    33   ar
    20    33    34   ar
    21    34    35   ar
    22    35    36   ar
    23    36    37   ar
    24    26    27   ar
    25     3     4   ar
    26     4     7    1
    27     7     8    1
    28     4     5   ar
    29     5     6   ar
    30     6     9    1
    31     9    10    1
    32     9    11    1
    33    11    12    2
    34    12    13    1
    35    13    14    1
    36    13    15    1
    37     6     1   ar
    38    27    22   ar
    39    37    28   ar
    40    37    32   ar
@<TRIPOS>MOLECULE
*****
 37 40 0 0 0
SMALL
GASTEIGER

@<TRIPOS>ATOM
      1 C         144.0964  142.9468  160.9153 C.ar    1  UNL1        0.0887
      2 C         143.3318  143.7815  161.8995 C.ar    1  UNL1        0.0375
      3 C         142.1118  144.5338  161.4569 C.ar    1  UNL1        0.1088
      4 C         141.6565  144.4514  160.0301 C.ar    1  UNL1        0.1552
      5 C         142.4211  143.6167  159.0458 C.ar    1  UNL1        0.0544
      6 C         143.6411  142.8644  159.4884 C.ar    1  UNL1        0.0703
      7 O         140.4366  145.2036  159.5875 O.3     1  UNL1       -0.4701
      8 C         140.1350  145.3498  158.1254 C.3     1  UNL1        0.2525
      9 N         144.4056  142.0298  158.5042 N.pl3   1  UNL1       -0.2820
     10 C         145.1832  142.3716  157.8154 C.3     1  UNL1        0.1174
     11 C         144.1303  140.5594  158.3941 C.2     1  UNL1        0.0815
     12 C         143.1040  139.9200  159.2817 C.2     1  UNL1        0.0778
     13 N         142.8287  138.4496  159.1717 N.pl3   1  UNL1       -0.3021
     14 C         142.4259  137.8586  157.8532 C.3     1  UNL1        0.1123
     15 C         142.9563  137.5702  160.3801 C.3     1  UNL1        0.1123
     16 N         145.3163  142.1946  161.3579 N.am    1  UNL1       -0.1741
     17 C         145.3508  141.5526  162.7131 C.2     1  UNL1        0.2692
     18 O         145.8746  141.9173  163.6010 O.2     1  UNL1       -0.2680
     19 C         144.6880  139.6009  164.2948 C.2     1  UNL1        0.0049
     20 C         144.6114  140.2700  162.9545 C.2     1  UNL1        0.0598
     21 N         141.3473  145.3684  162.4412 N.pl3   1  UNL1       -0.1745
     22 C         140.4989  144.7067  163.4863 C.ar    1  UNL1        0.2409
     23 N         139.0286  144.9965  163.5527 N.ar    1  UNL1       -0.2106
     24 C         138.1802  144.3348  164.5979 C.ar    1  UNL1        0.1034
     25 C         138.8020  143.3832  165.5766 C.ar    1  UNL1        0.0400
     26 C         140.2723  143.0934  165.5102 C.ar    1  UNL1        0.0873
     27 N         141.1207  143.7551  164.4651 N.ar    1  UNL1       -0.2121
     28 C         140.8941  142.1419  166.4889 C.ar    1  UNL1        0.0364
     29 C         141.6467  140.8905  166.1456 C.ar    1  UNL1        0.0774
     30 N         142.0902  140.2500  167.4273 N.ar    1  UNL1       -0.3240
     31 C         142.8744  138.9774  167.5518 C.3     1  UNL1        0.1305
     32 C         141.6118  141.1053  168.5629 C.ar    1  UNL1        0.0600
     33 C         141.7537  140.9706  170.0500 C.ar    1  UNL1        0.0172
     34 C         141.1565  142.0051  170.9572 C.ar    1  UNL1        0.0015
     35 C         140.4173  143.1744  170.3772 C.ar    1  UNL1        0.0001
     36 C         140.2753  143.3091  168.8901 C.ar    1  UNL1        0.0015
     37 C         140.8726  142.2746  167.9829 C.ar    1  UNL1        0.0187
@<TRIPOS>BOND
     1    19    20    2
     2    20    17    1
     3    17    18    2
     4    17    16   am
     5    16     1    1
     6     1     2   ar
     7     2     3   ar
     8     3    21    1
     9    21    22    1
    10    22    23   ar
    11    23    24   ar
    12    24    25   ar
    13    25    26   ar
    14    26    28    1
    15    28    29   ar
    16    29    30   ar
    17    30    31    1
    18    30    32   ar
    19    32    33   ar
    20    33    34   ar
    21    34    35   ar
    22    35    36   ar
    23    36    37   ar
    24    26    27   ar
    25     3     4   ar
    26     4     7    1
    27     7     8    1
    28     4     5   ar
    29     5     6   ar
    30     6     9    1
    31     9    10    1
    32     9    11    1
    33    11    12    2
    34    12    13    1
    35    13    14    1
    36    13    15    1
    37     6     1   ar
    38    27    22   ar
    39    37    28   ar
    40    37    32   ar
@<TRIPOS>MOLECULE
*****
 37 40 0 0 0
SMALL
GASTEIGER

@<TRIPOS>ATOM
      1 C         143.7585  140.6803  159.5149 C.ar    1  UNL1        0.0887
      2 C         143.6176  141.6736  160.6300 C.ar    1  UNL1        0.0375
      3 C         143.1925  143.0809  160.3318 C.ar    1  UNL1        0.1088
      4 C         142.9085  143.4948  158.9183 C.ar    1  UNL1        0.1552
      5 C         143.0494  142.5015  157.8031 C.ar    1  UNL1        0.0544
      6 C         143.4744  141.0942  158.1015 C.ar    1  UNL1        0.0703
      7 O         142.4834  144.9021  158.6199 O.3     1  UNL1       -0.4701
      8 C         141.0256  145.2529  158.5806 C.3     1  UNL1        0.2525
      9 N         143.6153  140.1010  156.9863 N.pl3   1  UNL1       -0.2820
     10 C         144.4578  140.0013  156.2963 C.3     1  UNL1        0.1174
     11 C         142.5246  139.1044  156.7273 C.2     1  UNL1        0.0815
     12 C         142.8571  137.6487  156.5848 C.2     1  UNL1        0.0778
     13 N         141.7664  136.6521  156.3258 N.pl3   1  UNL1       -0.3021
     14 C         142.1090  135.2135  156.0749 C.3     1  UNL1        0.1123
     15 C         140.3330  137.0941  156.3176 C.3     1  UNL1        0.1123
     16 N         144.1835  139.2730  159.8133 N.am    1  UNL1       -0.1741
     17 C         143.2452  138.3401  160.5199 C.2     1  UNL1        0.2692
     18 O         142.4103  137.7881  160.0796 O.2     1  UNL1       -0.2680
     19 C         142.2018  138.0731  162.8843 C.2     1  UNL1        0.0049
     20 C         143.4056  138.0859  161.9895 C.2     1  UNL1        0.0598
     21 N         143.0517  144.0741  161.4469 N.pl3   1  UNL1       -0.1745
     22 C         141.8018  144.0989  162.2758 C.ar    1  UNL1        0.2409
     23 N         140.8952  145.2931  162.2303 N.ar    1  UNL1       -0.2106
     24 C         139.6453  145.3178  163.0592 C.ar    1  UNL1        0.1034
     25 C         139.3020  144.1484  163.9337 C.ar    1  UNL1        0.0400
     26 C         140.2086  142.9542  163.9791 C.ar    1  UNL1        0.0873
     27 N         141.4584  142.9295  163.1502 N.ar    1  UNL1       -0.2121
     28 C         139.8652  141.7848  164.8535 C.ar    1  UNL1        0.0364
     29 C         139.3450  140.4576  164.3868 C.ar    1  UNL1        0.0774
     30 N         139.1400  139.5898  165.5930 N.ar    1  UNL1       -0.3240
     31 C         138.6309  138.1789  165.5879 C.3     1  UNL1        0.1305
     32 C         139.5336  140.3807  166.8053 C.ar    1  UNL1        0.0600
     33 C         139.5418  140.0409  168.2662 C.ar    1  UNL1        0.0172
     34 C         139.9982  141.0576  169.2701 C.ar    1  UNL1        0.0015
     35 C         140.4463  142.4142  168.8131 C.ar    1  UNL1        0.0001
     36 C         140.4382  142.7540  167.3522 C.ar    1  UNL1        0.0015
     37 C         139.9818  141.7373  166.3483 C.ar    1  UNL1        0.0187
@<TRIPOS>BOND
     1    19    20    2
     2    20    17    1
     3    17    18    2
     4    17    16   am
     5    16     1    1
     6     1     2   ar
     7     2     3   ar
     8     3    21    1
     9    21    22    1
    10    22    23   ar
    11    23    24   ar
    12    24    25   ar
    13    25    26   ar
    14    26    28    1
    15    28    29   ar
    16    29    30   ar
    17    30    31    1
    18    30    32   ar
    19    32    33   ar
    20    33    34   ar
    21    34    35   ar
    22    35    36   ar
    23    36    37   ar
    24    26    27   ar
    25     3     4   ar
    26     4     7    1
    27     7     8    1
    28     4     5   ar
    29     5     6   ar
    30     6     9    1
    31     9    10    1
    32     9    11    1
    33    11    12    2
    34    12    13    1
    35    13    14    1
    36    13    15    1
    37     6     1   ar
    38    27    22   ar
    39    37    28   ar
    40    37    32   ar
@<TRIPOS>MOLECULE
*****
 37 40 0 0 0
SMALL
GASTEIGER

@<TRIPOS>ATOM
      1 C         143.2417  143.5376  161.2467 C.ar    1  UNL1        0.0887
      2 C         143.3896  143.9373  162.6849 C.ar    1  UNL1        0.0375
      3 C         144.1880  143.0814  163.6230 C.ar    1  UNL1        0.1088
      4 C         144.8384  141.8257  163.1229 C.ar    1  UNL1        0.1552
      5 C         144.6905  141.4259  161.6847 C.ar    1  UNL1        0.0544
      6 C         143.8921  142.2819  160.7466 C.ar    1  UNL1        0.0703
      7 O         145.6368  140.9697  164.0610 O.3     1  UNL1       -0.4701
      8 C         145.1415  139.6044  164.4360 C.3     1  UNL1        0.2525
      9 N         143.7442  141.8821  159.3085 N.pl3   1  UNL1       -0.2820
     10 C         144.1996  142.3669  158.4405 C.3     1  UNL1        0.1174
     11 C         142.8965  140.7002  158.9419 C.2     1  UNL1        0.0815
     12 C         141.4811  140.6119  159.4308 C.2     1  UNL1        0.0778
     13 N         140.6334  139.4300  159.0643 N.pl3   1  UNL1       -0.3021
     14 C         139.1768  139.4120  159.4220 C.3     1  UNL1        0.1123
     15 C         141.2422  138.2661  158.3399 C.3     1  UNL1        0.1123
     16 N         142.4433  144.3936  160.3087 N.am    1  UNL1       -0.1741
     17 C         140.9479  144.4333  160.4185 C.2     1  UNL1        0.2692
     18 O         140.2644  143.5798  160.4090 O.2     1  UNL1       -0.2680
     19 C         139.6951  146.1682  161.8919 C.2     1  UNL1        0.0049
     20 C         140.2409  145.7487  160.5592 C.2     1  UNL1        0.0598
     21 N         144.3359  143.4812  165.0612 N.pl3   1  UNL1       -0.1745
     22 C         143.5874  142.7373  166.1272 C.ar    1  UNL1        0.2409
     23 N         143.9379  142.9419  167.5713 N.ar    1  UNL1       -0.2106
     24 C         143.1895  142.1981  168.6373 C.ar    1  UNL1        0.1034
     25 C         142.0905  141.2497  168.2594 C.ar    1  UNL1        0.0400
     26 C         141.7400  141.0451  166.8152 C.ar    1  UNL1        0.0873
     27 N         142.4885  141.7889  165.7492 N.ar    1  UNL1       -0.2121
     28 C         140.6411  140.0966  166.4372 C.ar    1  UNL1        0.0364
     29 C         139.4864  139.6940  167.3058 C.ar    1  UNL1        0.0774
     30 N         138.6357  138.7329  166.5297 N.ar    1  UNL1       -0.3240
     31 C         137.3769  138.0780  167.0164 C.3     1  UNL1        0.1305
     32 C         139.2646  138.5415  165.1814 C.ar    1  UNL1        0.0600
     33 C         138.8688  137.7086  163.9984 C.ar    1  UNL1        0.0172
     34 C         139.7124  137.7186  162.7582 C.ar    1  UNL1        0.0015
     35 C         140.9519  138.5615  162.7011 C.ar    1  UNL1        0.0001
     36 C         141.3477  139.3944  163.8841 C.ar    1  UNL1        0.0015
     37 C         140.5040  139.3844  165.1243 C.ar    1  UNL1        0.0187
@<TRIPOS>BOND
     1    19    20    2
     2    20    17    1
     3    17    18    2
     4    17    16   am
     5    16     1    1
     6     1     2   ar
     7     2     3   ar
     8     3    21    1
     9    21    22    1
    10    22    23   ar
    11    23    24   ar
    12    24    25   ar
    13    25    26   ar
    14    26    28    1
    15    28    29   ar
    16    29    30   ar
    17    30    31    1
    18    30    32   ar
    19    32    33   ar
    20    33    34   ar
    21    34    35   ar
    22    35    36   ar
    23    36    37   ar
    24    26    27   ar
    25     3     4   ar
    26     4     7    1
    27     7     8    1
    28     4     5   ar
    29     5     6   ar
    30     6     9    1
    31     9    10    1
    32     9    11    1
    33    11    12    2
    34    12    13    1
    35    13    14    1
    36    13    15    1
    37     6     1   ar
    38    27    22   ar
    39    37    28   ar
    40    37    32   ar
@<TRIPOS>MOLECULE
*****
 37 40 0 0 0
SMALL
GASTEIGER

@<TRIPOS>ATOM
      1 C         142.3954  138.8924  160.2372 C.ar    1  UNL1        0.0887
      2 C         143.3037  139.8111  160.9994 C.ar    1  UNL1        0.0375
      3 C         143.7886  141.0816  160.3664 C.ar    1  UNL1        0.1088
      4 C         143.3651  141.4334  158.9711 C.ar    1  UNL1        0.1552
      5 C         142.4568  140.5147  158.2088 C.ar    1  UNL1        0.0544
      6 C         141.9720  139.2442  158.8419 C.ar    1  UNL1        0.0703
      7 O         143.8500  142.7039  158.3380 O.3     1  UNL1       -0.4701
      8 C         142.9027  143.8488  158.1331 C.3     1  UNL1        0.2525
      9 N         141.0637  138.3256  158.0796 N.pl3   1  UNL1       -0.2820
     10 C         139.9716  138.2928  158.1253 C.3     1  UNL1        0.1174
     11 C         141.6411  137.3155  157.1329 C.2     1  UNL1        0.0815
     12 C         142.7943  136.4580  157.5629 C.2     1  UNL1        0.0778
     13 N         143.3718  135.4479  156.6163 N.pl3   1  UNL1       -0.3021
     14 C         143.6629  135.8318  155.1958 C.3     1  UNL1        0.1123
     15 C         143.6581  134.0538  157.0901 C.3     1  UNL1        0.1123
     16 N         141.9106  137.6219  160.8703 N.am    1  UNL1       -0.1741
     17 C         140.8783  137.6721  161.9573 C.2     1  UNL1        0.2692
     18 O         140.8335  137.0450  162.8520 O.2     1  UNL1       -0.2680
     19 C         138.3486  138.2266  162.1659 C.2     1  UNL1        0.0049
     20 C         139.7548  138.6630  161.8795 C.2     1  UNL1        0.0598
     21 N         144.6969  142.0002  161.1287 N.pl3   1  UNL1       -0.1745
     22 C         144.1590  142.8071  162.2731 C.ar    1  UNL1        0.2409
     23 N         144.1426  144.3049  162.1924 N.ar    1  UNL1       -0.2106
     24 C         143.6047  145.1118  163.3367 C.ar    1  UNL1        0.1034
     25 C         143.0833  144.4209  164.5618 C.ar    1  UNL1        0.0400
     26 C         143.0997  142.9231  164.6425 C.ar    1  UNL1        0.0873
     27 N         143.6376  142.1163  163.4982 N.ar    1  UNL1       -0.2121
     28 C         142.5783  142.2323  165.8676 C.ar    1  UNL1        0.0364
     29 C         143.1982  142.2712  167.2330 C.ar    1  UNL1        0.0774
     30 N         142.3484  141.4442  168.1516 N.ar    1  UNL1       -0.3240
     31 C         142.5996  141.2086  169.6115 C.3     1  UNL1        0.1305
     32 C         141.2033  140.8942  167.3540 C.ar    1  UNL1        0.0600
     33 C         140.0495  140.0127  167.7307 C.ar    1  UNL1        0.0172
     34 C         139.0379  139.6183  166.6959 C.ar    1  UNL1        0.0015
     35 C         139.1800  140.1054  165.2843 C.ar    1  UNL1        0.0001
     36 C         140.3337  140.9868  164.9075 C.ar    1  UNL1        0.0015
     37 C         141.3453  141.3812  165.9424 C.ar    1  UNL1        0.0187
@<TRIPOS>BOND
     1    19    20    2
     2    20    17    1
     3    17    18    2
     4    17    16   am
     5    16     1    1
     6     1     2   ar
     7     2     3   ar
     8     3    21    1
     9    21    22    1
    10    22    23   ar
    11    23    24   ar
    12    24    25   ar
    13    25    26   ar
    14    26    28    1
    15    28    29   ar
    16    29    30   ar
    17    30    31    1
    18    30    32   ar
    19    32    33   ar
    20    33    34   ar
    21    34    35   ar
    22    35    36   ar
    23    36    37   ar
    24    26    27   ar
    25     3     4   ar
    26     4     7    1
    27     7     8    1
    28     4     5   ar
    29     5     6   ar
    30     6     9    1
    31     9    10    1
    32     9    11    1
    33    11    12    2
    34    12    13    1
    35    13    14    1
    36    13    15    1
    37     6     1   ar
    38    27    22   ar
    39    37    28   ar
    40    37    32   ar
