@<TRIPOS>MOLECULE
*****
 34 38 0 0 0
SMALL
GASTEIGER

@<TRIPOS>ATOM
      1 N         143.3056  143.3735  162.0606 N.3     1  UNL1       -0.2726
      2 C         144.5589  142.9291  161.3666 C.3     1  UNL1        0.0721
      3 C         145.2518  141.9361  162.2520 C.3     1  UNL1        0.0190
      4 C         144.4266  141.7667  163.4931 C.3     1  UNL1        0.0201
      5 C         145.3315  140.7654  164.1477 C.3     1  UNL1        0.0061
      6 C         144.0781  141.2098  164.8416 C.3     1  UNL1        0.0237
      7 C         143.2237  142.6551  163.3748 C.3     1  UNL1        0.0724
      8 C         143.1533  141.1447  166.0208 C.ar    1  UNL1       -0.0184
      9 C         143.1663  142.2401  167.0455 C.ar    1  UNL1       -0.0020
     10 C         142.2415  142.1751  168.2246 C.ar    1  UNL1        0.0293
     11 C         141.3036  141.0147  168.3791 C.ar    1  UNL1        0.1401
     12 F         140.3787  140.9497  169.5582 F       1  UNL1       -0.2042
     13 C         141.2905  139.9194  167.3544 C.ar    1  UNL1        0.0332
     14 C         142.2154  139.9844  166.1752 C.ar    1  UNL1        0.0697
     15 C         142.2023  138.8891  165.1506 C.3     1  UNL1        0.4184
     16 F         142.1892  137.7937  164.1258 F       1  UNL1       -0.1659
     17 F         141.4745  139.7898  164.1971 F       1  UNL1       -0.1659
     18 F         142.9301  137.9883  166.1040 F       1  UNL1       -0.1659
     19 C         142.3089  144.3626  161.5329 C.3     1  UNL1        0.0730
     20 C         140.8411  144.1285  161.7344 C.3     1  UNL1        0.0294
     21 C         140.0266  145.1094  162.5246 C.3     1  UNL1        0.0666
     22 S         138.6827  144.7106  163.0581 S.3     1  UNL1       -0.0756
     23 C         138.0749  140.9504  163.8049 C.ar    1  UNL1        0.2029
     24 N         137.3075  141.1200  162.5273 N.ar    1  UNL1       -0.1250
     25 N         137.4418  142.5492  162.0920 N.ar    1  UNL1       -0.1220
     26 C         138.2922  143.2629  163.1007 C.ar    1  UNL1        0.1933
     27 N         138.6835  142.2749  164.1593 N.ar    1  UNL1       -0.2860
     28 C         139.5340  142.5611  165.3613 C.3     1  UNL1        0.1341
     29 C         139.1448  138.0897  162.6555 C.3     1  UNL1        0.0556
     30 C         138.7018  138.3647  164.0619 C.ar    1  UNL1        0.1001
     31 N         138.6728  137.3731  165.1870 N.ar    1  UNL1       -0.2085
     32 C         138.1631  138.0751  166.4107 C.ar    1  UNL1        0.2849
     33 O         137.8772  139.5007  166.0419 O.2     1  UNL1       -0.4283
     34 C         138.2101  139.6796  164.5903 C.ar    1  UNL1        0.1964
@<TRIPOS>BOND
     1    29    30    1
     2    30    31   ar
     3    31    32   ar
     4    32    33   ar
     5    33    34   ar
     6    34    23    1
     7    23    24   ar
     8    24    25   ar
     9    25    26   ar
    10    26    22    1
    11    22    21    1
    12    21    20    1
    13    20    19    1
    14    19     1    1
    15     1     2    1
    16     2     3    1
    17     4     3    1
    18     4     5    1
    19     5     6    1
    20     6     8    1
    21     8     9   ar
    22     9    10   ar
    23    10    11   ar
    24    11    12    1
    25    11    13   ar
    26    13    14   ar
    27    14    15    1
    28    15    16    1
    29    15    17    1
    30    15    18    1
    31     4     7    1
    32    26    27   ar
    33    27    28    1
    34    34    30   ar
    35    27    23   ar
    36     7     1    1
    37     6     4    1
    38    14     8   ar
@<TRIPOS>MOLECULE
*****
 34 38 0 0 0
SMALL
GASTEIGER

@<TRIPOS>ATOM
      1 N         139.9340  138.4860  164.2224 N.3     1  UNL1       -0.2726
      2 C         141.1201  137.6907  163.7635 C.3     1  UNL1        0.0721
      3 C         142.2288  137.8996  164.7520 C.3     1  UNL1        0.0190
      4 C         141.7279  138.8240  165.8219 C.3     1  UNL1        0.0201
      5 C         142.9968  138.8404  166.6217 C.3     1  UNL1        0.0061
      6 C         141.8107  139.6357  167.0806 C.3     1  UNL1        0.0237
      7 C         140.3097  139.1864  165.4946 C.3     1  UNL1        0.0724
      8 C         141.1737  140.5634  168.0723 C.ar    1  UNL1       -0.0184
      9 C         140.0411  140.0818  168.9298 C.ar    1  UNL1       -0.0020
     10 C         139.4041  141.0095  169.9215 C.ar    1  UNL1        0.0293
     11 C         139.8996  142.4189  170.0557 C.ar    1  UNL1        0.1401
     12 F         139.2626  143.3466  171.0474 F       1  UNL1       -0.2042
     13 C         141.0322  142.9005  169.1982 C.ar    1  UNL1        0.0332
     14 C         141.6693  141.9728  168.2065 C.ar    1  UNL1        0.0697
     15 C         142.8018  142.4544  167.3491 C.3     1  UNL1        0.4184
     16 F         143.9344  142.9360  166.4916 F       1  UNL1       -0.1659
     17 F         143.7417  142.3095  168.5091 F       1  UNL1       -0.1659
     18 F         141.8620  142.5993  166.1890 F       1  UNL1       -0.1659
     19 C         138.6055  138.5668  163.5307 C.3     1  UNL1        0.0730
     20 C         138.5051  138.2739  162.0630 C.3     1  UNL1        0.0294
     21 C         137.6929  139.1679  161.1736 C.3     1  UNL1        0.0666
     22 S         138.3790  140.1110  160.2302 S.3     1  UNL1       -0.0756
     23 C         140.1881  143.2043  161.7215 C.ar    1  UNL1        0.2029
     24 N         138.9254  143.8280  161.2052 N.ar    1  UNL1       -0.1250
     25 N         138.0940  142.7451  160.5838 N.ar    1  UNL1       -0.1220
     26 C         138.8429  141.4522  160.7159 C.ar    1  UNL1        0.1933
     27 N         140.1371  141.7359  161.4191 N.ar    1  UNL1       -0.2860
     28 C         141.1947  140.7283  161.7600 C.3     1  UNL1        0.1341
     29 C         139.9637  144.8164  164.5500 C.3     1  UNL1        0.0556
     30 C         141.2025  144.6638  163.7180 C.ar    1  UNL1        0.1001
     31 N         142.5556  145.2254  164.0400 N.ar    1  UNL1       -0.2085
     32 C         143.4950  144.8314  162.9390 C.ar    1  UNL1        0.2849
     33 O         142.7225  144.0264  161.9364 O.2     1  UNL1       -0.4283
     34 C         141.3056  143.9228  162.4179 C.ar    1  UNL1        0.1964
@<TRIPOS>BOND
     1    29    30    1
     2    30    31   ar
     3    31    32   ar
     4    32    33   ar
     5    33    34   ar
     6    34    23    1
     7    23    24   ar
     8    24    25   ar
     9    25    26   ar
    10    26    22    1
    11    22    21    1
    12    21    20    1
    13    20    19    1
    14    19     1    1
    15     1     2    1
    16     2     3    1
    17     4     3    1
    18     4     5    1
    19     5     6    1
    20     6     8    1
    21     8     9   ar
    22     9    10   ar
    23    10    11   ar
    24    11    12    1
    25    11    13   ar
    26    13    14   ar
    27    14    15    1
    28    15    16    1
    29    15    17    1
    30    15    18    1
    31     4     7    1
    32    26    27   ar
    33    27    28    1
    34    34    30   ar
    35    27    23   ar
    36     7     1    1
    37     6     4    1
    38    14     8   ar
@<TRIPOS>MOLECULE
*****
 34 38 0 0 0
SMALL
GASTEIGER

@<TRIPOS>ATOM
      1 N         138.6391  142.6529  164.3392 N.3     1  UNL1       -0.2726
      2 C         137.9205  141.4092  163.9069 C.3     1  UNL1        0.0721
      3 C         138.2177  140.3310  164.9065 C.3     1  UNL1        0.0190
      4 C         139.1199  140.9084  165.9567 C.3     1  UNL1        0.0201
      5 C         139.2334  139.6547  166.7724 C.3     1  UNL1        0.0061
      6 C         139.9519  140.8984  167.2047 C.3     1  UNL1        0.0237
      7 C         139.3803  142.3434  165.6060 C.3     1  UNL1        0.0724
      8 C         140.8471  141.6108  168.1749 C.ar    1  UNL1       -0.0184
      9 C         140.3177  142.7618  168.9779 C.ar    1  UNL1       -0.0020
     10 C         141.2129  143.4741  169.9480 C.ar    1  UNL1        0.0293
     11 C         142.6375  143.0354  170.1151 C.ar    1  UNL1        0.1401
     12 F         143.5327  143.7477  171.0853 F       1  UNL1       -0.2042
     13 C         143.1670  141.8844  169.3121 C.ar    1  UNL1        0.0332
     14 C         142.2718  141.1721  168.3420 C.ar    1  UNL1        0.0697
     15 C         142.8012  140.0211  167.5390 C.3     1  UNL1        0.4184
     16 F         143.3306  138.8701  166.7359 F       1  UNL1       -0.1659
     17 F         142.3775  139.0718  168.6204 F       1  UNL1       -0.1659
     18 F         143.2248  140.9703  166.4575 F       1  UNL1       -0.1659
     19 C         138.6197  143.9741  163.6294 C.3     1  UNL1        0.0730
     20 C         139.8799  144.7785  163.5075 C.3     1  UNL1        0.0294
     21 C         140.1194  145.6172  162.2871 C.3     1  UNL1        0.0666
     22 S         140.9329  145.0727  161.1506 S.3     1  UNL1       -0.0756
     23 C         143.0143  141.8347  161.6502 C.ar    1  UNL1        0.2029
     24 N         144.0425  142.8879  161.9397 N.ar    1  UNL1       -0.1250
     25 N         143.3880  144.2290  161.7878 N.ar    1  UNL1       -0.1220
     26 C         141.9552  144.0047  161.4044 C.ar    1  UNL1        0.1933
     27 N         141.7243  142.5250  161.3193 N.ar    1  UNL1       -0.2860
     28 C         140.4305  141.8535  160.9655 C.3     1  UNL1        0.1341
     29 C         141.7405  139.7545  163.8181 C.3     1  UNL1        0.0556
     30 C         142.6516  139.3956  162.6817 C.ar    1  UNL1        0.1001
     31 N         143.1371  138.0176  162.3424 N.ar    1  UNL1       -0.2085
     32 C         144.0226  138.1220  161.1361 C.ar    1  UNL1        0.2849
     33 O         144.0844  139.5647  160.7300 O.2     1  UNL1       -0.4283
     34 C         143.2371  140.3518  161.6853 C.ar    1  UNL1        0.1964
@<TRIPOS>BOND
     1    29    30    1
     2    30    31   ar
     3    31    32   ar
     4    32    33   ar
     5    33    34   ar
     6    34    23    1
     7    23    24   ar
     8    24    25   ar
     9    25    26   ar
    10    26    22    1
    11    22    21    1
    12    21    20    1
    13    20    19    1
    14    19     1    1
    15     1     2    1
    16     2     3    1
    17     4     3    1
    18     4     5    1
    19     5     6    1
    20     6     8    1
    21     8     9   ar
    22     9    10   ar
    23    10    11   ar
    24    11    12    1
    25    11    13   ar
    26    13    14   ar
    27    14    15    1
    28    15    16    1
    29    15    17    1
    30    15    18    1
    31     4     7    1
    32    26    27   ar
    33    27    28    1
    34    34    30   ar
    35    27    23   ar
    36     7     1    1
    37     6     4    1
    38    14     8   ar
@<TRIPOS>MOLECULE
*****
 34 38 0 0 0
SMALL
GASTEIGER

@<TRIPOS>ATOM
      1 N         138.0288  140.2880  163.0925 N.3     1  UNL1       -0.2726
      2 C         138.0547  139.0441  162.2546 C.3     1  UNL1        0.0721
      3 C         138.9438  138.0456  162.9346 C.3     1  UNL1        0.0190
      4 C         139.4674  138.6723  164.1928 C.3     1  UNL1        0.0201
      5 C         140.2827  137.4912  164.6289 C.3     1  UNL1        0.0061
      6 C         140.2568  138.7350  165.4668 C.3     1  UNL1        0.0237
      7 C         138.9019  140.0582  164.2904 C.3     1  UNL1        0.0724
      8 C         140.6976  139.4894  166.6861 C.ar    1  UNL1       -0.0184
      9 C         139.6833  139.9488  167.6912 C.ar    1  UNL1       -0.0020
     10 C         140.1241  140.7032  168.9104 C.ar    1  UNL1        0.0293
     11 C         141.5791  140.9981  169.1246 C.ar    1  UNL1        0.1401
     12 F         142.0199  141.7524  170.3439 F       1  UNL1       -0.2042
     13 C         142.5934  140.5386  168.1195 C.ar    1  UNL1        0.0332
     14 C         142.1526  139.7843  166.9002 C.ar    1  UNL1        0.0697
     15 C         143.1668  139.3248  165.8952 C.3     1  UNL1        0.4184
     16 F         144.1811  138.8654  164.8901 F       1  UNL1       -0.1659
     17 F         143.4387  138.1063  166.7266 F       1  UNL1       -0.1659
     18 F         142.8950  140.5434  165.0637 F       1  UNL1       -0.1659
     19 C         137.2641  141.5415  162.7863 C.3     1  UNL1        0.0730
     20 C         137.9802  142.7440  162.2466 C.3     1  UNL1        0.0294
     21 C         137.8517  144.0677  162.9406 C.3     1  UNL1        0.0666
     22 S         138.9657  145.0687  162.8586 S.3     1  UNL1       -0.0756
     23 C         142.5128  143.5754  162.3545 C.ar    1  UNL1        0.2029
     24 N         142.3498  144.3682  161.0916 N.ar    1  UNL1       -0.1250
     25 N         141.0013  145.0241  161.1267 N.ar    1  UNL1       -0.1220
     26 C         140.3308  144.6367  162.4114 C.ar    1  UNL1        0.1933
     27 N         141.2649  143.7414  163.1702 N.ar    1  UNL1       -0.2860
     28 C         140.9980  143.1209  164.5095 C.3     1  UNL1        0.1341
     29 C         143.6329  140.9542  160.7657 C.3     1  UNL1        0.0556
     30 C         144.2278  141.5551  162.0047 C.ar    1  UNL1        0.1001
     31 N         145.4419  141.0567  162.7309 N.ar    1  UNL1       -0.2085
     32 C         145.6775  141.9535  163.9100 C.ar    1  UNL1        0.2849
     33 O         144.6089  143.0062  163.9125 O.2     1  UNL1       -0.4283
     34 C         143.7129  142.7600  162.7350 C.ar    1  UNL1        0.1964
@<TRIPOS>BOND
     1    29    30    1
     2    30    31   ar
     3    31    32   ar
     4    32    33   ar
     5    33    34   ar
     6    34    23    1
     7    23    24   ar
     8    24    25   ar
     9    25    26   ar
    10    26    22    1
    11    22    21    1
    12    21    20    1
    13    20    19    1
    14    19     1    1
    15     1     2    1
    16     2     3    1
    17     4     3    1
    18     4     5    1
    19     5     6    1
    20     6     8    1
    21     8     9   ar
    22     9    10   ar
    23    10    11   ar
    24    11    12    1
    25    11    13   ar
    26    13    14   ar
    27    14    15    1
    28    15    16    1
    29    15    17    1
    30    15    18    1
    31     4     7    1
    32    26    27   ar
    33    27    28    1
    34    34    30   ar
    35    27    23   ar
    36     7     1    1
    37     6     4    1
    38    14     8   ar
@<TRIPOS>MOLECULE
*****
 34 38 0 0 0
SMALL
GASTEIGER

@<TRIPOS>ATOM
      1 N         143.7945  142.4023  163.2235 N.3     1  UNL1       -0.2726
      2 C         145.2116  141.9133  163.1722 C.3     1  UNL1        0.0721
      3 C         145.2868  140.6286  163.9428 C.3     1  UNL1        0.0190
      4 C         143.9162  140.3236  164.4704 C.3     1  UNL1        0.0201
      5 C         144.2944  139.0469  165.1609 C.3     1  UNL1        0.0061
      6 C         142.8773  139.5359  165.2122 C.3     1  UNL1        0.0237
      7 C         142.9939  141.4198  164.0258 C.3     1  UNL1        0.0724
      8 C         141.4594  139.3634  165.6701 C.ar    1  UNL1       -0.0184
      9 C         140.9823  140.0579  166.9111 C.ar    1  UNL1       -0.0020
     10 C         139.5643  139.8854  167.3690 C.ar    1  UNL1        0.0293
     11 C         138.6235  139.0185  166.5859 C.ar    1  UNL1        0.1401
     12 F         137.2056  138.8461  167.0438 F       1  UNL1       -0.2042
     13 C         139.1006  138.3240  165.3449 C.ar    1  UNL1        0.0332
     14 C         140.5185  138.4965  164.8870 C.ar    1  UNL1        0.0697
     15 C         140.9956  137.8020  163.6461 C.3     1  UNL1        0.4184
     16 F         141.4728  137.1076  162.4051 F       1  UNL1       -0.1659
     17 F         140.6744  139.0246  162.8385 F       1  UNL1       -0.1659
     18 F         141.3169  136.5795  164.4536 F       1  UNL1       -0.1659
     19 C         143.2701  143.6540  162.5846 C.3     1  UNL1        0.0730
     20 C         142.8417  144.8097  163.4396 C.3     1  UNL1        0.0294
     21 C         141.3835  145.1190  163.6069 C.3     1  UNL1        0.0666
     22 S         140.5516  145.4804  162.4123 S.3     1  UNL1       -0.0756
     23 C         138.7139  142.7927  160.2993 C.ar    1  UNL1        0.2029
     24 N         137.7375  142.9984  161.4193 N.ar    1  UNL1       -0.1250
     25 N         138.3071  144.0303  162.3471 N.ar    1  UNL1       -0.1220
     26 C         139.6355  144.4623  161.8006 C.ar    1  UNL1        0.1933
     27 N         139.8870  143.6975  160.5350 N.ar    1  UNL1       -0.2860
     28 C         141.0987  143.8165  159.6588 C.3     1  UNL1        0.1341
     29 C         138.2843  139.5646  160.5107 C.3     1  UNL1        0.0556
     30 C         138.3492  140.3643  159.2433 C.ar    1  UNL1        0.1001
     31 N         138.2280  139.8207  157.8505 N.ar    1  UNL1       -0.2085
     32 C         138.3506  140.9684  156.8926 C.ar    1  UNL1        0.2849
     33 O         138.5476  142.2215  157.6933 O.2     1  UNL1       -0.4283
     34 C         138.5467  141.8481  159.1461 C.ar    1  UNL1        0.1964
@<TRIPOS>BOND
     1    29    30    1
     2    30    31   ar
     3    31    32   ar
     4    32    33   ar
     5    33    34   ar
     6    34    23    1
     7    23    24   ar
     8    24    25   ar
     9    25    26   ar
    10    26    22    1
    11    22    21    1
    12    21    20    1
    13    20    19    1
    14    19     1    1
    15     1     2    1
    16     2     3    1
    17     4     3    1
    18     4     5    1
    19     5     6    1
    20     6     8    1
    21     8     9   ar
    22     9    10   ar
    23    10    11   ar
    24    11    12    1
    25    11    13   ar
    26    13    14   ar
    27    14    15    1
    28    15    16    1
    29    15    17    1
    30    15    18    1
    31     4     7    1
    32    26    27   ar
    33    27    28    1
    34    34    30   ar
    35    27    23   ar
    36     7     1    1
    37     6     4    1
    38    14     8   ar
@<TRIPOS>MOLECULE
*****
 34 38 0 0 0
SMALL
GASTEIGER

@<TRIPOS>ATOM
      1 N         139.2938  139.5365  165.8663 N.3     1  UNL1       -0.2726
      2 C         139.3763  139.4695  167.3626 C.3     1  UNL1        0.0721
      3 C         139.8997  140.7853  167.8572 C.3     1  UNL1        0.0190
      4 C         140.1407  141.6655  166.6667 C.3     1  UNL1        0.0201
      5 C         140.6354  142.8490  167.4443 C.3     1  UNL1        0.0061
      6 C         140.5528  142.9160  165.9480 C.3     1  UNL1        0.0237
      7 C         139.7662  140.8937  165.4363 C.3     1  UNL1        0.0724
      8 C         140.7431  143.6766  164.6693 C.ar    1  UNL1       -0.0184
      9 C         142.0869  143.6994  164.0030 C.ar    1  UNL1       -0.0020
     10 C         142.2771  144.4600  162.7243 C.ar    1  UNL1        0.0293
     11 C         141.1237  145.1977  162.1117 C.ar    1  UNL1        0.1401
     12 F         141.3139  145.9583  160.8330 F       1  UNL1       -0.2042
     13 C         139.7799  145.1749  162.7780 C.ar    1  UNL1        0.0332
     14 C         139.5896  144.4143  164.0567 C.ar    1  UNL1        0.0697
     15 C         138.2460  144.3915  164.7229 C.3     1  UNL1        0.4184
     16 F         136.9022  144.3687  165.3892 F       1  UNL1       -0.1659
     17 F         138.6861  145.4870  165.6482 F       1  UNL1       -0.1659
     18 F         137.8057  143.2959  163.7977 F       1  UNL1       -0.1659
     19 C         138.8217  138.4390  164.9594 C.3     1  UNL1        0.0730
     20 C         138.2235  138.7738  163.6252 C.3     1  UNL1        0.0294
     21 C         138.4015  137.8373  162.4670 C.3     1  UNL1        0.0666
     22 S         139.3796  138.1676  161.3788 S.3     1  UNL1       -0.0756
     23 C         142.9667  139.3651  162.2530 C.ar    1  UNL1        0.2029
     24 N         143.1701  137.8816  162.1635 N.ar    1  UNL1       -0.1250
     25 N         141.8511  137.2525  161.8251 N.ar    1  UNL1       -0.1220
     26 C         140.8325  138.3472  161.7055 C.ar    1  UNL1        0.1933
     27 N         141.5220  139.6528  161.9700 N.ar    1  UNL1       -0.2860
     28 C         140.8796  141.0082  161.9542 C.3     1  UNL1        0.1341
     29 C         144.0550  141.6915  160.2398 C.3     1  UNL1        0.0556
     30 C         144.5229  141.4516  161.6446 C.ar    1  UNL1        0.1001
     31 N         145.5731  142.2388  162.3707 N.ar    1  UNL1       -0.2085
     32 C         145.7220  141.6561  163.7448 C.ar    1  UNL1        0.2849
     33 O         144.7638  140.5086  163.8680 O.2     1  UNL1       -0.4283
     34 C         144.0227  140.3823  162.5700 C.ar    1  UNL1        0.1964
@<TRIPOS>BOND
     1    29    30    1
     2    30    31   ar
     3    31    32   ar
     4    32    33   ar
     5    33    34   ar
     6    34    23    1
     7    23    24   ar
     8    24    25   ar
     9    25    26   ar
    10    26    22    1
    11    22    21    1
    12    21    20    1
    13    20    19    1
    14    19     1    1
    15     1     2    1
    16     2     3    1
    17     4     3    1
    18     4     5    1
    19     5     6    1
    20     6     8    1
    21     8     9   ar
    22     9    10   ar
    23    10    11   ar
    24    11    12    1
    25    11    13   ar
    26    13    14   ar
    27    14    15    1
    28    15    16    1
    29    15    17    1
    30    15    18    1
    31     4     7    1
    32    26    27   ar
    33    27    28    1
    34    34    30   ar
    35    27    23   ar
    36     7     1    1
    37     6     4    1
    38    14     8   ar
@<TRIPOS>MOLECULE
*****
 34 38 0 0 0
SMALL
GASTEIGER

@<TRIPOS>ATOM
      1 N         139.0701  139.5407  165.8652 N.3     1  UNL1       -0.2726
      2 C         139.2664  139.4553  167.3499 C.3     1  UNL1        0.0721
      3 C         139.8499  140.7562  167.8158 C.3     1  UNL1        0.0190
      4 C         140.0142  141.6457  166.6192 C.3     1  UNL1        0.0201
      5 C         140.5884  142.8116  167.3681 C.3     1  UNL1        0.0061
      6 C         140.3921  142.8970  165.8835 C.3     1  UNL1        0.0237
      7 C         139.5322  140.8944  165.4137 C.3     1  UNL1        0.0724
      8 C         140.4969  143.6688  164.6016 C.ar    1  UNL1       -0.0184
      9 C         141.7370  143.5666  163.7639 C.ar    1  UNL1       -0.0020
     10 C         141.8418  144.3384  162.4819 C.ar    1  UNL1        0.0293
     11 C         140.7066  145.2123  162.0377 C.ar    1  UNL1        0.1401
     12 F         140.8114  145.9841  160.7558 F       1  UNL1       -0.2042
     13 C         139.4664  145.3145  162.8754 C.ar    1  UNL1        0.0332
     14 C         139.3616  144.5427  164.1573 C.ar    1  UNL1        0.0697
     15 C         138.1216  144.6449  164.9950 C.3     1  UNL1        0.4184
     16 F         136.8815  144.7470  165.8327 F       1  UNL1       -0.1659
     17 F         138.8262  145.5895  165.9229 F       1  UNL1       -0.1659
     18 F         137.4168  143.7002  164.0671 F       1  UNL1       -0.1659
     19 C         138.5099  138.4619  164.9864 C.3     1  UNL1        0.0730
     20 C         139.3815  137.8046  163.9577 C.3     1  UNL1        0.0294
     21 C         139.2579  138.1897  162.5132 C.3     1  UNL1        0.0666
     22 S         137.9952  138.8254  162.0119 S.3     1  UNL1       -0.0756
     23 C         138.4342  142.0491  159.8951 C.ar    1  UNL1        0.2029
     24 N         137.7494  142.5934  161.1136 N.ar    1  UNL1       -0.1250
     25 N         137.5016  141.4521  162.0548 N.ar    1  UNL1       -0.1220
     26 C         138.0332  140.2023  161.4181 C.ar    1  UNL1        0.1933
     27 N         138.6097  140.5712  160.0833 N.ar    1  UNL1       -0.2860
     28 C         139.2492  139.6280  159.1080 C.3     1  UNL1        0.1341
     29 C         137.1279  141.8858  156.9090 C.3     1  UNL1        0.0556
     30 C         138.2671  142.7680  157.3260 C.ar    1  UNL1        0.1001
     31 N         139.0059  143.7301  156.4436 N.ar    1  UNL1       -0.2085
     32 C         140.0629  144.3998  157.2708 C.ar    1  UNL1        0.2849
     33 O         139.9775  143.8516  158.6644 O.2     1  UNL1       -0.4283
     34 C         138.8676  142.8431  158.6985 C.ar    1  UNL1        0.1964
@<TRIPOS>BOND
     1    29    30    1
     2    30    31   ar
     3    31    32   ar
     4    32    33   ar
     5    33    34   ar
     6    34    23    1
     7    23    24   ar
     8    24    25   ar
     9    25    26   ar
    10    26    22    1
    11    22    21    1
    12    21    20    1
    13    20    19    1
    14    19     1    1
    15     1     2    1
    16     2     3    1
    17     4     3    1
    18     4     5    1
    19     5     6    1
    20     6     8    1
    21     8     9   ar
    22     9    10   ar
    23    10    11   ar
    24    11    12    1
    25    11    13   ar
    26    13    14   ar
    27    14    15    1
    28    15    16    1
    29    15    17    1
    30    15    18    1
    31     4     7    1
    32    26    27   ar
    33    27    28    1
    34    34    30   ar
    35    27    23   ar
    36     7     1    1
    37     6     4    1
    38    14     8   ar
@<TRIPOS>MOLECULE
*****
 34 38 0 0 0
SMALL
GASTEIGER

@<TRIPOS>ATOM
      1 N         138.4117  142.9478  164.4124 N.3     1  UNL1       -0.2726
      2 C         137.7072  142.1139  163.3836 C.3     1  UNL1        0.0721
      3 C         137.8478  140.6738  163.7788 C.3     1  UNL1        0.0190
      4 C         138.6393  140.6175  165.0518 C.3     1  UNL1        0.0201
      5 C         138.6133  139.1239  165.1867 C.3     1  UNL1        0.0061
      6 C         139.3178  139.9577  166.2155 C.3     1  UNL1        0.0237
      7 C         138.9878  142.0229  165.4434 C.3     1  UNL1        0.0724
      8 C         140.1164  140.0581  167.4812 C.ar    1  UNL1       -0.0184
      9 C         139.4169  140.1106  168.8071 C.ar    1  UNL1       -0.0020
     10 C         140.2154  140.2111  170.0729 C.ar    1  UNL1        0.0293
     11 C         141.7134  140.2590  170.0128 C.ar    1  UNL1        0.1401
     12 F         142.5119  140.3595  171.2786 F       1  UNL1       -0.2042
     13 C         142.4129  140.2065  168.6869 C.ar    1  UNL1        0.0332
     14 C         141.6144  140.1061  167.4211 C.ar    1  UNL1        0.0697
     15 C         142.3138  140.0535  166.0953 C.3     1  UNL1        0.4184
     16 F         143.0133  140.0010  164.7694 F       1  UNL1       -0.1659
     17 F         142.3370  138.5554  166.1669 F       1  UNL1       -0.1659
     18 F         142.2906  141.5517  166.0236 F       1  UNL1       -0.1659
     19 C         138.5210  144.4438  164.4105 C.3     1  UNL1        0.0730
     20 C         139.6349  145.1135  163.6617 C.3     1  UNL1        0.0294
     21 C         139.4450  145.5038  162.2258 C.3     1  UNL1        0.0666
     22 S         140.2626  144.8445  161.1550 S.3     1  UNL1       -0.0756
     23 C         140.4648  140.9686  161.1060 C.ar    1  UNL1        0.2029
     24 N         139.4548  141.2199  160.0257 N.ar    1  UNL1       -0.1250
     25 N         139.2562  142.7024  159.9126 N.ar    1  UNL1       -0.1220
     26 C         140.1433  143.3674  160.9229 C.ar    1  UNL1        0.1933
     27 N         140.8903  142.2959  161.6605 N.ar    1  UNL1       -0.2860
     28 C         141.8877  142.5134  162.7595 C.3     1  UNL1        0.1341
     29 C         138.6600  138.2714  161.4478 C.3     1  UNL1        0.0556
     30 C         140.1323  138.3861  161.7103 C.ar    1  UNL1        0.1001
     31 N         141.0337  137.2813  162.1760 N.ar    1  UNL1       -0.2085
     32 C         142.4203  137.8382  162.3067 C.ar    1  UNL1        0.2849
     33 O         142.3760  139.2873  161.9218 O.2     1  UNL1       -0.4283
     34 C         140.9619  139.6259  161.5532 C.ar    1  UNL1        0.1964
@<TRIPOS>BOND
     1    29    30    1
     2    30    31   ar
     3    31    32   ar
     4    32    33   ar
     5    33    34   ar
     6    34    23    1
     7    23    24   ar
     8    24    25   ar
     9    25    26   ar
    10    26    22    1
    11    22    21    1
    12    21    20    1
    13    20    19    1
    14    19     1    1
    15     1     2    1
    16     2     3    1
    17     4     3    1
    18     4     5    1
    19     5     6    1
    20     6     8    1
    21     8     9   ar
    22     9    10   ar
    23    10    11   ar
    24    11    12    1
    25    11    13   ar
    26    13    14   ar
    27    14    15    1
    28    15    16    1
    29    15    17    1
    30    15    18    1
    31     4     7    1
    32    26    27   ar
    33    27    28    1
    34    34    30   ar
    35    27    23   ar
    36     7     1    1
    37     6     4    1
    38    14     8   ar
@<TRIPOS>MOLECULE
*****
 34 38 0 0 0
SMALL
GASTEIGER

@<TRIPOS>ATOM
      1 N         143.8321  141.1745  161.8485 N.3     1  UNL1       -0.2726
      2 C         143.7924  140.3607  160.5891 C.3     1  UNL1        0.0721
      3 C         142.3763  140.3404  160.0949 C.3     1  UNL1        0.0190
      4 C         141.5408  141.1416  161.0489 C.3     1  UNL1        0.0201
      5 C         140.2427  140.9452  160.3235 C.3     1  UNL1        0.0061
      6 C         140.2824  141.7590  161.5830 C.3     1  UNL1        0.0237
      7 C         142.4406  141.6571  162.1327 C.3     1  UNL1        0.0724
      8 C         139.5788  142.5852  162.6185 C.ar    1  UNL1       -0.0184
      9 C         139.8218  144.0637  162.6903 C.ar    1  UNL1       -0.0020
     10 C         139.1182  144.8900  163.7258 C.ar    1  UNL1        0.0293
     11 C         138.1716  144.2377  164.6894 C.ar    1  UNL1        0.1401
     12 F         137.4681  145.0640  165.7249 F       1  UNL1       -0.2042
     13 C         137.9287  142.7593  164.6176 C.ar    1  UNL1        0.0332
     14 C         138.6323  141.9330  163.5821 C.ar    1  UNL1        0.0697
     15 C         138.3893  140.4547  163.5103 C.3     1  UNL1        0.4184
     16 F         138.1464  138.9762  163.4385 F       1  UNL1       -0.1659
     17 F         139.5888  140.2154  164.3787 F       1  UNL1       -0.1659
     18 F         137.1899  140.6938  162.6418 F       1  UNL1       -0.1659
     19 C         145.0496  141.4562  162.6782 C.3     1  UNL1        0.0730
     20 C         145.2541  140.7368  163.9784 C.3     1  UNL1        0.0294
     21 C         144.7870  139.3198  164.1332 C.3     1  UNL1        0.0666
     22 S         143.4281  139.0359  164.7013 S.3     1  UNL1       -0.0756
     23 C         142.3981  140.5549  168.1214 C.ar    1  UNL1        0.2029
     24 N         142.9359  139.2208  168.5469 N.ar    1  UNL1       -0.1250
     25 N         143.3872  138.4894  167.3175 N.ar    1  UNL1       -0.1220
     26 C         143.1283  139.3715  166.1322 C.ar    1  UNL1        0.1933
     27 N         142.5170  140.6480  166.6290 N.ar    1  UNL1       -0.2860
     28 C         142.0982  141.8131  165.7821 C.3     1  UNL1        0.1341
     29 C         144.1340  142.6553  169.9172 C.3     1  UNL1        0.0556
     30 C         142.6374  142.5759  169.8544 C.ar    1  UNL1        0.1001
     31 N         141.6759  143.4481  170.6060 N.ar    1  UNL1       -0.2085
     32 C         140.2838  143.0217  170.2451 C.ar    1  UNL1        0.2849
     33 O         140.3849  141.8860  169.2705 O.2     1  UNL1       -0.4283
     34 C         141.8395  141.6105  169.0290 C.ar    1  UNL1        0.1964
@<TRIPOS>BOND
     1    29    30    1
     2    30    31   ar
     3    31    32   ar
     4    32    33   ar
     5    33    34   ar
     6    34    23    1
     7    23    24   ar
     8    24    25   ar
     9    25    26   ar
    10    26    22    1
    11    22    21    1
    12    21    20    1
    13    20    19    1
    14    19     1    1
    15     1     2    1
    16     2     3    1
    17     4     3    1
    18     4     5    1
    19     5     6    1
    20     6     8    1
    21     8     9   ar
    22     9    10   ar
    23    10    11   ar
    24    11    12    1
    25    11    13   ar
    26    13    14   ar
    27    14    15    1
    28    15    16    1
    29    15    17    1
    30    15    18    1
    31     4     7    1
    32    26    27   ar
    33    27    28    1
    34    34    30   ar
    35    27    23   ar
    36     7     1    1
    37     6     4    1
    38    14     8   ar
