@<TRIPOS>MOLECULE
*****
 34 37 0 0 0
SMALL
GASTEIGER

@<TRIPOS>ATOM
      1 C         140.0327  144.2043  161.5489 C.ar    1  UNL1        0.0502
      2 C         140.3899  145.2477  162.5656 C.ar    1  UNL1        0.0143
      3 C         140.8307  144.8366  163.9391 C.ar    1  UNL1       -0.0030
      4 C         140.9142  143.3821  164.2961 C.ar    1  UNL1       -0.0223
      5 C         140.5569  142.3387  163.2795 C.ar    1  UNL1       -0.0034
      6 C         140.1161  142.7498  161.9059 C.ar    1  UNL1        0.0089
      7 C         141.3549  142.9711  165.6697 C.3     1  UNL1        0.0251
      8 C         140.3631  142.9283  166.7942 C.3     1  UNL1        0.0217
      9 C         140.8039  142.5173  168.1678 C.3     1  UNL1        0.0725
     10 N         142.2365  142.1490  168.4169 N.3     1  UNL1       -0.2706
     11 C         143.2283  142.1918  167.2924 C.3     1  UNL1        0.0725
     12 C         142.7875  142.6028  165.9188 C.3     1  UNL1        0.0217
     13 C         142.6773  141.7380  169.7905 C.3     1  UNL1        0.1042
     14 C         141.7203  141.0334  170.7057 C.3     1  UNL1        0.1544
     15 O         142.1404  140.6793  172.1015 O.3     1  UNL1       -0.3805
     16 H         142.8494  140.0182  172.0679 H       1  UNL1        0.2105
     17 C         139.7588  141.7063  160.8892 C.2     1  UNL1       -0.0253
     18 C         140.8191  141.1383  159.9930 C.2     1  UNL1       -0.0303
     19 C         140.4619  140.0949  158.9764 C.3     1  UNL1        0.0257
     20 C         139.0443  139.6194  158.8559 C.3     1  UNL1        0.0050
     21 C         137.9840  140.1874  159.7520 C.3     1  UNL1        0.0050
     22 C         138.3413  141.2309  160.7687 C.3     1  UNL1        0.0261
     23 C         140.6132  144.9236  159.1208 C.2     1  UNL1        0.2837
     24 O         142.0753  144.8208  159.4400 O.2     1  UNL1       -0.2665
     25 N         139.5919  144.6153  160.1753 N.am    1  UNL1       -0.2779
     26 H         138.6323  144.6828  159.9658 H       1  UNL1        0.1553
     27 C         139.7863  146.6491  155.7439 C.ar    1  UNL1        0.1469
     28 C         139.2023  145.2852  155.5231 C.ar    1  UNL1        0.1282
     29 N         139.4410  144.4728  156.7612 N.ar    1  UNL1       -0.2205
     30 C         140.1725  145.3346  157.7472 C.ar    1  UNL1        0.1958
     31 N         140.3859  146.6796  157.1185 N.ar    1  UNL1       -0.3257
     32 H         140.8398  147.4476  157.5349 H       1  UNL1        0.1682
     33 N         139.7597  148.9176  153.7809 N.1     1  UNL1       -0.1893
     34 C         139.7730  147.7834  154.7624 C.1     1  UNL1        0.1194
@<TRIPOS>BOND
     1    33    34    3
     2    34    27    1
     3    27    28   ar
     4    28    29   ar
     5    29    30   ar
     6    30    23    1
     7    23    24    2
     8    23    25   am
     9    25     1    1
    10     1     2   ar
    11     2     3   ar
    12     3     4   ar
    13     4     7    1
    14     7     8    1
    15     8     9    1
    16     9    10    1
    17    10    13    1
    18    13    14    1
    19    14    15    1
    20    10    11    1
    21    11    12    1
    22     4     5   ar
    23     5     6   ar
    24     6    17    1
    25    17    18    2
    26    18    19    1
    27    19    20    1
    28    20    21    1
    29    21    22    1
    30    30    31   ar
    31    31    27   ar
    32     6     1   ar
    33    22    17    1
    34    12     7    1
    35    25    26    1
    36    15    16    1
    37    31    32    1
@<TRIPOS>MOLECULE
*****
 34 37 0 0 0
SMALL
GASTEIGER

@<TRIPOS>ATOM
      1 C         141.3029  139.4037  164.0567 C.ar    1  UNL1        0.0502
      2 C         140.6303  138.1663  163.5406 C.ar    1  UNL1        0.0143
      3 C         140.6648  137.8499  162.0748 C.ar    1  UNL1       -0.0030
      4 C         141.3719  138.7708  161.1251 C.ar    1  UNL1       -0.0223
      5 C         142.0445  140.0082  161.6413 C.ar    1  UNL1       -0.0034
      6 C         142.0100  140.3246  163.1071 C.ar    1  UNL1        0.0089
      7 C         141.4064  138.4543  159.6592 C.3     1  UNL1        0.0251
      8 C         142.6351  137.8446  159.0523 C.3     1  UNL1        0.0217
      9 C         142.6696  137.5282  157.5864 C.3     1  UNL1        0.0725
     10 N         141.4753  137.8213  156.7276 N.3     1  UNL1       -0.2706
     11 C         140.2465  138.4310  157.3346 C.3     1  UNL1        0.0725
     12 C         140.2121  138.7475  158.8004 C.3     1  UNL1        0.0217
     13 C         141.5097  137.5049  155.2618 C.3     1  UNL1        0.1042
     14 C         141.5593  136.0774  154.8037 C.3     1  UNL1        0.1544
     15 O         140.9582  134.9962  155.6520 O.3     1  UNL1       -0.3805
     16 H         141.4585  134.9186  156.4794 H       1  UNL1        0.2105
     17 C         142.6827  141.5620  163.6233 C.2     1  UNL1       -0.0253
     18 C         144.0956  141.4949  164.1225 C.2     1  UNL1       -0.0303
     19 C         144.7682  142.7322  164.6387 C.3     1  UNL1        0.0257
     20 C         144.0280  144.0368  164.6557 C.3     1  UNL1        0.0050
     21 C         142.6151  144.1039  164.1565 C.3     1  UNL1        0.0050
     22 C         141.9425  142.8665  163.6402 C.3     1  UNL1        0.0261
     23 C         142.3076  139.1449  166.4387 C.2     1  UNL1        0.2837
     24 O         143.3812  138.2531  165.8889 O.2     1  UNL1       -0.2665
     25 N         141.2684  139.7201  165.5226 N.am    1  UNL1       -0.2779
     26 H         140.5638  140.3054  165.8834 H       1  UNL1        0.1553
     27 C         141.7082  140.4814  170.0330 C.ar    1  UNL1        0.1469
     28 C         142.7322  139.4152  170.2873 C.ar    1  UNL1        0.1282
     29 N         143.0813  138.7847  168.9718 N.ar    1  UNL1       -0.2205
     30 C         142.2732  139.4613  167.9045 C.ar    1  UNL1        0.1958
     31 N         141.4245  140.5099  168.5604 N.ar    1  UNL1       -0.3257
     32 H         140.7924  141.1113  168.1044 H       1  UNL1        0.1682
     33 N         140.4487  142.2470  172.1059 N.1     1  UNL1       -0.1893
     34 C         141.0785  141.3642  171.0695 C.1     1  UNL1        0.1194
@<TRIPOS>BOND
     1    33    34    3
     2    34    27    1
     3    27    28   ar
     4    28    29   ar
     5    29    30   ar
     6    30    23    1
     7    23    24    2
     8    23    25   am
     9    25     1    1
    10     1     2   ar
    11     2     3   ar
    12     3     4   ar
    13     4     7    1
    14     7     8    1
    15     8     9    1
    16     9    10    1
    17    10    13    1
    18    13    14    1
    19    14    15    1
    20    10    11    1
    21    11    12    1
    22     4     5   ar
    23     5     6   ar
    24     6    17    1
    25    17    18    2
    26    18    19    1
    27    19    20    1
    28    20    21    1
    29    21    22    1
    30    30    31   ar
    31    31    27   ar
    32     6     1   ar
    33    22    17    1
    34    12     7    1
    35    25    26    1
    36    15    16    1
    37    31    32    1
@<TRIPOS>MOLECULE
*****
 34 37 0 0 0
SMALL
GASTEIGER

@<TRIPOS>ATOM
      1 C         140.2220  142.7182  160.3409 C.ar    1  UNL1        0.0502
      2 C         139.3597  142.4439  159.1446 C.ar    1  UNL1        0.0143
      3 C         139.3087  143.4295  158.0151 C.ar    1  UNL1       -0.0030
      4 C         140.1200  144.6894  158.0818 C.ar    1  UNL1       -0.0223
      5 C         140.9823  144.9637  159.2781 C.ar    1  UNL1       -0.0034
      6 C         141.0333  143.9781  160.4076 C.ar    1  UNL1        0.0089
      7 C         140.0689  145.6750  156.9521 C.3     1  UNL1        0.0251
      8 C         140.8459  145.4164  155.6955 C.3     1  UNL1        0.0217
      9 C         140.7949  146.4020  154.5658 C.3     1  UNL1        0.0725
     10 N         139.9668  147.6463  154.6930 N.3     1  UNL1       -0.2706
     11 C         139.1897  147.9048  155.9498 C.3     1  UNL1        0.0725
     12 C         139.2408  146.9192  157.0793 C.3     1  UNL1        0.0217
     13 C         139.9157  148.6319  153.5634 C.3     1  UNL1        0.1042
     14 C         139.7940  150.0986  153.8529 C.3     1  UNL1        0.1544
     15 O         140.8120  150.7791  154.7194 O.3     1  UNL1       -0.3805
     16 H         140.7530  150.4300  155.6225 H       1  UNL1        0.2105
     17 C         141.8957  144.2523  161.6040 C.2     1  UNL1       -0.0253
     18 C         143.2937  143.7115  161.6606 C.2     1  UNL1       -0.0303
     19 C         144.1560  143.9858  162.8569 C.3     1  UNL1        0.0257
     20 C         143.6204  144.8008  163.9966 C.3     1  UNL1        0.0050
     21 C         142.2224  145.3416  163.9400 C.3     1  UNL1        0.0050
     22 C         141.3600  145.0673  162.7436 C.3     1  UNL1        0.0261
     23 C         139.2032  141.7406  162.5218 C.2     1  UNL1        0.2837
     24 O         138.0822  142.7342  162.4434 O.2     1  UNL1       -0.2665
     25 N         140.2731  141.7325  161.4705 N.am    1  UNL1       -0.2779
     26 H         141.0088  141.0804  161.5219 H       1  UNL1        0.1553
     27 C         138.5989  139.3373  165.5091 C.ar    1  UNL1        0.1469
     28 C         140.0665  139.1394  165.2702 C.ar    1  UNL1        0.1282
     29 N         140.4714  140.0155  164.1220 N.ar    1  UNL1       -0.2205
     30 C         139.2542  140.7550  163.6514 C.ar    1  UNL1        0.1958
     31 N         138.0969  140.3358  164.5087 N.ar    1  UNL1       -0.3257
     32 H         137.1705  140.6593  164.4287 H       1  UNL1        0.1682
     33 N         136.9562  137.9753  167.6178 N.1     1  UNL1       -0.1893
     34 C         137.7775  138.6563  166.5635 C.1     1  UNL1        0.1194
@<TRIPOS>BOND
     1    33    34    3
     2    34    27    1
     3    27    28   ar
     4    28    29   ar
     5    29    30   ar
     6    30    23    1
     7    23    24    2
     8    23    25   am
     9    25     1    1
    10     1     2   ar
    11     2     3   ar
    12     3     4   ar
    13     4     7    1
    14     7     8    1
    15     8     9    1
    16     9    10    1
    17    10    13    1
    18    13    14    1
    19    14    15    1
    20    10    11    1
    21    11    12    1
    22     4     5   ar
    23     5     6   ar
    24     6    17    1
    25    17    18    2
    26    18    19    1
    27    19    20    1
    28    20    21    1
    29    21    22    1
    30    30    31   ar
    31    31    27   ar
    32     6     1   ar
    33    22    17    1
    34    12     7    1
    35    25    26    1
    36    15    16    1
    37    31    32    1
@<TRIPOS>MOLECULE
*****
 34 37 0 0 0
SMALL
GASTEIGER

@<TRIPOS>ATOM
      1 C         140.9345  139.6167  163.8778 C.ar    1  UNL1        0.0502
      2 C         141.5457  138.3153  163.4503 C.ar    1  UNL1        0.0143
      3 C         141.6091  137.9588  161.9947 C.ar    1  UNL1       -0.0030
      4 C         141.0612  138.9037  160.9666 C.ar    1  UNL1       -0.0223
      5 C         140.4500  140.2051  161.3940 C.ar    1  UNL1       -0.0034
      6 C         140.3867  140.5616  162.8497 C.ar    1  UNL1        0.0089
      7 C         141.1246  138.5472  159.5109 C.3     1  UNL1        0.0251
      8 C         139.8906  138.6351  158.6627 C.3     1  UNL1        0.0217
      9 C         139.9540  138.2786  157.2071 C.3     1  UNL1        0.0725
     10 N         141.2515  137.8341  156.5996 N.3     1  UNL1       -0.2706
     11 C         142.4855  137.7461  157.4478 C.3     1  UNL1        0.0725
     12 C         142.4221  138.1026  158.9034 C.3     1  UNL1        0.0217
     13 C         141.3149  137.4775  155.1440 C.3     1  UNL1        0.1042
     14 C         141.0218  136.0744  154.7021 C.3     1  UNL1        0.1544
     15 O         140.9410  134.9706  155.7146 O.3     1  UNL1       -0.3805
     16 H         141.8137  134.8354  156.1159 H       1  UNL1        0.2105
     17 C         139.7755  141.8630  163.2772 C.2     1  UNL1       -0.0253
     18 C         138.3093  141.9378  163.5850 C.2     1  UNL1       -0.0303
     19 C         137.6980  143.2391  164.0125 C.3     1  UNL1        0.0257
     20 C         138.5530  144.4658  164.1323 C.3     1  UNL1        0.0050
     21 C         140.0192  144.3911  163.8246 C.3     1  UNL1        0.0050
     22 C         140.6304  143.0896  163.3970 C.3     1  UNL1        0.0261
     23 C         139.6882  139.5572  166.1567 C.2     1  UNL1        0.2837
     24 O         138.5688  138.7846  165.5242 O.2     1  UNL1       -0.2665
     25 N         140.8711  139.9732  165.3335 N.am    1  UNL1       -0.2779
     26 H         141.6059  140.4803  165.7485 H       1  UNL1        0.1553
     27 C         140.1801  140.8264  169.7916 C.ar    1  UNL1        0.1469
     28 C         138.8743  140.0982  169.9130 C.ar    1  UNL1        0.1282
     29 N         138.5311  139.5342  168.5662 N.ar    1  UNL1       -0.2205
     30 C         139.6248  139.9137  167.6123 C.ar    1  UNL1        0.1958
     31 N         140.6439  140.7123  168.3696 N.ar    1  UNL1       -0.3257
     32 H         141.4719  141.0944  167.9986 H       1  UNL1        0.1682
     33 N         141.6126  142.2592  172.0041 N.1     1  UNL1       -0.1893
     34 C         140.8964  141.5428  170.8978 C.1     1  UNL1        0.1194
@<TRIPOS>BOND
     1    33    34    3
     2    34    27    1
     3    27    28   ar
     4    28    29   ar
     5    29    30   ar
     6    30    23    1
     7    23    24    2
     8    23    25   am
     9    25     1    1
    10     1     2   ar
    11     2     3   ar
    12     3     4   ar
    13     4     7    1
    14     7     8    1
    15     8     9    1
    16     9    10    1
    17    10    13    1
    18    13    14    1
    19    14    15    1
    20    10    11    1
    21    11    12    1
    22     4     5   ar
    23     5     6   ar
    24     6    17    1
    25    17    18    2
    26    18    19    1
    27    19    20    1
    28    20    21    1
    29    21    22    1
    30    30    31   ar
    31    31    27   ar
    32     6     1   ar
    33    22    17    1
    34    12     7    1
    35    25    26    1
    36    15    16    1
    37    31    32    1
@<TRIPOS>MOLECULE
*****
 34 37 0 0 0
SMALL
GASTEIGER

@<TRIPOS>ATOM
      1 C         141.4533  138.6774  161.8467 C.ar    1  UNL1        0.0502
      2 C         141.3455  137.5387  162.8172 C.ar    1  UNL1        0.0143
      3 C         141.2492  137.8138  164.2885 C.ar    1  UNL1       -0.0030
      4 C         141.2608  139.2277  164.7895 C.ar    1  UNL1       -0.0223
      5 C         141.3687  140.3663  163.8191 C.ar    1  UNL1       -0.0034
      6 C         141.4649  140.0912  162.3477 C.ar    1  UNL1        0.0089
      7 C         141.1645  139.5028  166.2609 C.3     1  UNL1        0.0251
      8 C         142.4051  139.5177  167.1039 C.3     1  UNL1        0.0217
      9 C         142.3088  139.7928  168.5754 C.3     1  UNL1        0.0725
     10 N         140.9719  140.0530  169.2038 N.3     1  UNL1       -0.2706
     11 C         139.7313  140.0381  168.3607 C.3     1  UNL1        0.0725
     12 C         139.8276  139.7630  166.8893 C.3     1  UNL1        0.0217
     13 C         140.8756  140.3281  170.6751 C.3     1  UNL1        0.1042
     14 C         140.9209  141.7404  171.1786 C.3     1  UNL1        0.1544
     15 O         142.0207  142.1722  172.1028 O.3     1  UNL1       -0.3805
     16 H         141.9371  141.7016  172.9469 H       1  UNL1        0.2105
     17 C         141.5728  141.2299  161.3772 C.2     1  UNL1       -0.0253
     18 C         142.9187  141.7918  161.0269 C.2     1  UNL1       -0.0303
     19 C         143.0266  142.9304  160.0564 C.3     1  UNL1        0.0257
     20 C         141.7886  143.5072  159.4362 C.3     1  UNL1        0.0050
     21 C         140.4426  142.9453  159.7866 C.3     1  UNL1        0.0050
     22 C         140.3348  141.8066  160.7571 C.3     1  UNL1        0.0261
     23 C         142.8939  138.2577  159.7257 C.2     1  UNL1        0.2837
     24 O         144.1420  138.3884  160.5476 O.2     1  UNL1       -0.2665
     25 N         141.5496  138.4022  160.3753 N.am    1  UNL1       -0.2779
     26 H         140.7305  138.3165  159.8359 H       1  UNL1        0.1553
     27 C         142.9150  136.8530  156.1075 C.ar    1  UNL1        0.1469
     28 C         143.3621  138.2655  155.8726 C.ar    1  UNL1        0.1282
     29 N         143.4086  138.9636  157.1995 N.ar    1  UNL1       -0.2205
     30 C         142.9903  137.9826  158.2543 C.ar    1  UNL1        0.1958
     31 N         142.6852  136.6783  157.5795 N.ar    1  UNL1       -0.3257
     32 H         142.3866  135.8524  158.0245 H       1  UNL1        0.1682
     33 N         142.5452  134.7474  154.0028 N.1     1  UNL1       -0.1893
     34 C         142.7301  135.8002  155.0552 C.1     1  UNL1        0.1194
@<TRIPOS>BOND
     1    33    34    3
     2    34    27    1
     3    27    28   ar
     4    28    29   ar
     5    29    30   ar
     6    30    23    1
     7    23    24    2
     8    23    25   am
     9    25     1    1
    10     1     2   ar
    11     2     3   ar
    12     3     4   ar
    13     4     7    1
    14     7     8    1
    15     8     9    1
    16     9    10    1
    17    10    13    1
    18    13    14    1
    19    14    15    1
    20    10    11    1
    21    11    12    1
    22     4     5   ar
    23     5     6   ar
    24     6    17    1
    25    17    18    2
    26    18    19    1
    27    19    20    1
    28    20    21    1
    29    21    22    1
    30    30    31   ar
    31    31    27   ar
    32     6     1   ar
    33    22    17    1
    34    12     7    1
    35    25    26    1
    36    15    16    1
    37    31    32    1
@<TRIPOS>MOLECULE
*****
 34 37 0 0 0
SMALL
GASTEIGER

@<TRIPOS>ATOM
      1 C         142.1616  140.6004  163.9206 C.ar    1  UNL1        0.0502
      2 C         143.2624  139.6340  163.5977 C.ar    1  UNL1        0.0143
      3 C         143.5674  139.2950  162.1687 C.ar    1  UNL1       -0.0030
      4 C         142.7717  139.9224  161.0627 C.ar    1  UNL1       -0.0223
      5 C         141.6710  140.8888  161.3857 C.ar    1  UNL1       -0.0034
      6 C         141.3659  141.2278  162.8147 C.ar    1  UNL1        0.0089
      7 C         143.0768  139.5834  159.6337 C.3     1  UNL1        0.0251
      8 C         143.8606  140.5415  158.7865 C.3     1  UNL1        0.0217
      9 C         144.1657  140.2024  157.3574 C.3     1  UNL1        0.0725
     10 N         143.6870  138.9053  156.7757 N.3     1  UNL1       -0.2706
     11 C         142.9032  137.9472  157.6230 C.3     1  UNL1        0.0725
     12 C         142.5982  138.2863  159.0520 C.3     1  UNL1        0.0217
     13 C         143.9921  138.5663  155.3468 C.3     1  UNL1        0.1042
     14 C         144.9507  139.4131  154.5633 C.3     1  UNL1        0.1544
     15 O         145.2035  139.1154  153.1150 O.3     1  UNL1       -0.3805
     16 H         145.6434  138.2547  153.0337 H       1  UNL1        0.2105
     17 C         140.2651  142.1943  163.1377 C.2     1  UNL1       -0.0253
     18 C         140.5740  143.6517  163.3127 C.2     1  UNL1       -0.0303
     19 C         139.4733  144.6181  163.6357 C.3     1  UNL1        0.0257
     20 C         138.0636  144.1272  163.7838 C.3     1  UNL1        0.0050
     21 C         137.7547  142.6698  163.6088 C.3     1  UNL1        0.0050
     22 C         138.8555  141.7033  163.2857 C.3     1  UNL1        0.0261
     23 C         142.6851  141.9603  166.0716 C.2     1  UNL1        0.2837
     24 O         143.8188  142.6422  165.3646 O.2     1  UNL1       -0.2665
     25 N         141.8565  140.9394  165.3497 N.am    1  UNL1       -0.2779
     26 H         141.1124  140.4919  165.8137 H       1  UNL1        0.1553
     27 C         141.1781  142.8375  169.5392 C.ar    1  UNL1        0.1469
     28 C         142.6431  142.8047  169.8599 C.ar    1  UNL1        0.1282
     29 N         143.3859  142.4721  168.5999 N.ar    1  UNL1       -0.2205
     30 C         142.3801  142.2994  167.5006 C.ar    1  UNL1        0.1958
     31 N         141.0156  142.5252  168.0812 N.ar    1  UNL1       -0.3257
     32 H         140.1630  142.4770  167.5912 H       1  UNL1        0.1682
     33 N         138.9622  143.4248  171.4745 N.1     1  UNL1       -0.1893
     34 C         140.0702  143.1312  170.5069 C.1     1  UNL1        0.1194
@<TRIPOS>BOND
     1    33    34    3
     2    34    27    1
     3    27    28   ar
     4    28    29   ar
     5    29    30   ar
     6    30    23    1
     7    23    24    2
     8    23    25   am
     9    25     1    1
    10     1     2   ar
    11     2     3   ar
    12     3     4   ar
    13     4     7    1
    14     7     8    1
    15     8     9    1
    16     9    10    1
    17    10    13    1
    18    13    14    1
    19    14    15    1
    20    10    11    1
    21    11    12    1
    22     4     5   ar
    23     5     6   ar
    24     6    17    1
    25    17    18    2
    26    18    19    1
    27    19    20    1
    28    20    21    1
    29    21    22    1
    30    30    31   ar
    31    31    27   ar
    32     6     1   ar
    33    22    17    1
    34    12     7    1
    35    25    26    1
    36    15    16    1
    37    31    32    1
@<TRIPOS>MOLECULE
*****
 34 37 0 0 0
SMALL
GASTEIGER

@<TRIPOS>ATOM
      1 C         141.1921  138.6746  161.8868 C.ar    1  UNL1        0.0502
      2 C         141.5636  137.6072  162.8729 C.ar    1  UNL1        0.0143
      3 C         141.4885  137.8868  164.3447 C.ar    1  UNL1       -0.0030
      4 C         141.0418  139.2339  164.8303 C.ar    1  UNL1       -0.0223
      5 C         140.6702  140.3013  163.8442 C.ar    1  UNL1       -0.0034
      6 C         140.7454  140.0217  162.3725 C.ar    1  UNL1        0.0089
      7 C         140.9667  139.5135  166.3022 C.3     1  UNL1        0.0251
      8 C         139.6439  139.8160  166.9415 C.3     1  UNL1        0.0217
      9 C         139.5688  140.0956  168.4134 C.3     1  UNL1        0.0725
     10 N         140.8164  140.0726  169.2458 N.3     1  UNL1       -0.2706
     11 C         142.1392  139.7701  168.6063 C.3     1  UNL1        0.0725
     12 C         142.2143  139.4905  167.1346 C.3     1  UNL1        0.0217
     13 C         140.7413  140.3522  170.7176 C.3     1  UNL1        0.1042
     14 C         140.8822  141.7577  171.2221 C.3     1  UNL1        0.1544
     15 O         142.1687  142.2033  171.8517 O.3     1  UNL1       -0.3805
     16 H         142.3080  141.7187  172.6804 H       1  UNL1        0.2105
     17 C         140.3738  141.0891  161.3862 C.2     1  UNL1       -0.0253
     18 C         138.9492  141.2349  160.9400 C.2     1  UNL1       -0.0303
     19 C         138.5776  142.3023  159.9539 C.3     1  UNL1        0.0257
     20 C         139.6307  143.2240  159.4139 C.3     1  UNL1        0.0050
     21 C         141.0553  143.0783  159.8601 C.3     1  UNL1        0.0050
     22 C         141.4269  142.0108  160.8463 C.3     1  UNL1        0.0261
     23 C         142.5611  138.5859  159.6804 C.2     1  UNL1        0.2837
     24 O         143.7797  139.0564  160.4177 O.2     1  UNL1       -0.2665
     25 N         141.2672  138.3950  160.4150 N.am    1  UNL1       -0.2779
     26 H         140.4674  138.0862  159.9311 H       1  UNL1        0.1553
     27 C         142.1654  137.4123  156.0020 C.ar    1  UNL1        0.1469
     28 C         143.3384  138.3400  155.8856 C.ar    1  UNL1        0.1282
     29 N         143.6294  138.8926  157.2494 N.ar    1  UNL1       -0.2205
     30 C         142.6362  138.3064  158.2086 C.ar    1  UNL1        0.1958
     31 N         141.7315  137.3915  157.4377 N.ar    1  UNL1       -0.3257
     32 H         140.9841  136.8691  157.8088 H       1  UNL1        0.1682
     33 N         140.9082  135.8692  153.7573 N.1     1  UNL1       -0.1893
     34 C         141.5368  136.6407  154.8796 C.1     1  UNL1        0.1194
@<TRIPOS>BOND
     1    33    34    3
     2    34    27    1
     3    27    28   ar
     4    28    29   ar
     5    29    30   ar
     6    30    23    1
     7    23    24    2
     8    23    25   am
     9    25     1    1
    10     1     2   ar
    11     2     3   ar
    12     3     4   ar
    13     4     7    1
    14     7     8    1
    15     8     9    1
    16     9    10    1
    17    10    13    1
    18    13    14    1
    19    14    15    1
    20    10    11    1
    21    11    12    1
    22     4     5   ar
    23     5     6   ar
    24     6    17    1
    25    17    18    2
    26    18    19    1
    27    19    20    1
    28    20    21    1
    29    21    22    1
    30    30    31   ar
    31    31    27   ar
    32     6     1   ar
    33    22    17    1
    34    12     7    1
    35    25    26    1
    36    15    16    1
    37    31    32    1
@<TRIPOS>MOLECULE
*****
 34 37 0 0 0
SMALL
GASTEIGER

@<TRIPOS>ATOM
      1 C         140.0730  142.6889  163.6470 C.ar    1  UNL1        0.0502
      2 C         139.9301  144.0607  163.0572 C.ar    1  UNL1        0.0143
      3 C         139.6543  144.2218  161.5917 C.ar    1  UNL1       -0.0030
      4 C         139.5213  143.0113  160.7159 C.ar    1  UNL1       -0.0223
      5 C         139.6641  141.6396  161.3057 C.ar    1  UNL1       -0.0034
      6 C         139.9400  141.4784  162.7713 C.ar    1  UNL1        0.0089
      7 C         139.2454  143.1725  159.2503 C.3     1  UNL1        0.0251
      8 C         140.0875  144.1008  158.4263 C.3     1  UNL1        0.0217
      9 C         139.8116  144.2621  156.9607 C.3     1  UNL1        0.0725
     10 N         138.6935  143.4950  156.3192 N.3     1  UNL1       -0.2706
     11 C         137.8514  142.5666  157.1433 C.3     1  UNL1        0.0725
     12 C         138.1273  142.4054  158.6088 C.3     1  UNL1        0.0217
     13 C         138.4176  143.6562  154.8536 C.3     1  UNL1        0.1042
     14 C         137.2094  144.4190  154.3974 C.3     1  UNL1        0.1544
     15 O         137.1688  145.9121  154.5356 O.3     1  UNL1       -0.3805
     16 H         137.1653  146.1499  155.4760 H       1  UNL1        0.2105
     17 C         140.0829  140.1066  163.3612 C.2     1  UNL1       -0.0253
     18 C         138.8766  139.3873  163.8878 C.2     1  UNL1       -0.0303
     19 C         139.0194  138.0156  164.4777 C.3     1  UNL1        0.0257
     20 C         140.3686  137.3631  164.5409 C.3     1  UNL1        0.0050
     21 C         141.5750  138.0824  164.0143 C.3     1  UNL1        0.0050
     22 C         141.4321  139.4542  163.4244 C.3     1  UNL1        0.0261
     23 C         141.7565  142.6103  165.6243 C.2     1  UNL1        0.2837
     24 O         142.8882  142.8542  164.6704 O.2     1  UNL1       -0.2665
     25 N         140.3489  142.5277  165.1126 N.am    1  UNL1       -0.2779
     26 H         139.6061  142.3676  165.7387 H       1  UNL1        0.1553
     27 C         141.7240  142.2657  169.4902 C.ar    1  UNL1        0.1469
     28 C         143.1901  142.1363  169.2000 C.ar    1  UNL1        0.1282
     29 N         143.3806  142.2497  167.7165 N.ar    1  UNL1       -0.2205
     30 C         142.0324  142.4491  167.0899 C.ar    1  UNL1        0.1958
     31 N         141.0086  142.4590  168.1861 N.ar    1  UNL1       -0.3257
     32 H         140.0376  142.5724  168.0700 H       1  UNL1        0.1682
     33 N         140.4471  142.1568  172.2028 N.1     1  UNL1       -0.1893
     34 C         141.0856  142.2113  170.8465 C.1     1  UNL1        0.1194
@<TRIPOS>BOND
     1    33    34    3
     2    34    27    1
     3    27    28   ar
     4    28    29   ar
     5    29    30   ar
     6    30    23    1
     7    23    24    2
     8    23    25   am
     9    25     1    1
    10     1     2   ar
    11     2     3   ar
    12     3     4   ar
    13     4     7    1
    14     7     8    1
    15     8     9    1
    16     9    10    1
    17    10    13    1
    18    13    14    1
    19    14    15    1
    20    10    11    1
    21    11    12    1
    22     4     5   ar
    23     5     6   ar
    24     6    17    1
    25    17    18    2
    26    18    19    1
    27    19    20    1
    28    20    21    1
    29    21    22    1
    30    30    31   ar
    31    31    27   ar
    32     6     1   ar
    33    22    17    1
    34    12     7    1
    35    25    26    1
    36    15    16    1
    37    31    32    1
@<TRIPOS>MOLECULE
*****
 34 37 0 0 0
SMALL
GASTEIGER

@<TRIPOS>ATOM
      1 C         140.2267  142.2496  162.8517 C.ar    1  UNL1        0.0502
      2 C         138.9155  142.6187  162.2236 C.ar    1  UNL1        0.0143
      3 C         138.8865  143.2445  160.8608 C.ar    1  UNL1       -0.0030
      4 C         140.1688  143.5013  160.1260 C.ar    1  UNL1       -0.0223
      5 C         141.4800  143.1323  160.7540 C.ar    1  UNL1       -0.0034
      6 C         141.5089  142.5064  162.1169 C.ar    1  UNL1        0.0089
      7 C         140.1398  144.1272  158.7630 C.3     1  UNL1        0.0251
      8 C         139.5702  143.3685  157.6013 C.3     1  UNL1        0.0217
      9 C         139.5412  143.9943  156.2383 C.3     1  UNL1        0.0725
     10 N         140.0818  145.3790  156.0373 N.3     1  UNL1       -0.2706
     11 C         140.6514  146.1378  157.1992 C.3     1  UNL1        0.0725
     12 C         140.6804  145.5119  158.5620 C.3     1  UNL1        0.0217
     13 C         140.0528  146.0049  154.6744 C.3     1  UNL1        0.1042
     14 C         139.8439  147.4835  154.5325 C.3     1  UNL1        0.1544
     15 O         139.8162  148.1096  153.1697 O.3     1  UNL1       -0.3805
     16 H         140.6913  148.0292  152.7591 H       1  UNL1        0.2105
     17 C         142.8202  142.1373  162.7450 C.2     1  UNL1       -0.0253
     18 C         143.4201  140.7864  162.4898 C.2     1  UNL1       -0.0303
     19 C         144.7313  140.4173  163.1178 C.3     1  UNL1        0.0257
     20 C         145.4426  141.3990  164.0013 C.3     1  UNL1        0.0050
     21 C         144.8426  142.7499  164.2565 C.3     1  UNL1        0.0050
     22 C         143.5313  143.1190  163.6284 C.3     1  UNL1        0.0261
     23 C         140.1853  142.4881  165.4385 C.2     1  UNL1        0.2837
     24 O         140.0859  143.9784  165.2994 O.2     1  UNL1       -0.2665
     25 N         140.2557  141.6237  164.2146 N.am    1  UNL1       -0.2779
     26 H         140.3209  140.6456  164.3058 H       1  UNL1        0.1553
     27 C         140.3421  141.5773  169.2082 C.ar    1  UNL1        0.1469
     28 C         140.1757  140.2212  168.5891 C.ar    1  UNL1        0.1282
     29 N         140.0967  140.3974  167.1016 N.ar    1  UNL1       -0.2205
     30 C         140.2143  141.8623  166.8014 C.ar    1  UNL1        0.1958
     31 N         140.3659  142.5916  168.1033 N.ar    1  UNL1       -0.3257
     32 H         140.4639  143.5650  168.2134 H       1  UNL1        0.1682
     33 N         140.5846  142.1590  172.1413 N.1     1  UNL1       -0.1893
     34 C         140.4633  141.8682  170.6748 C.1     1  UNL1        0.1194
@<TRIPOS>BOND
     1    33    34    3
     2    34    27    1
     3    27    28   ar
     4    28    29   ar
     5    29    30   ar
     6    30    23    1
     7    23    24    2
     8    23    25   am
     9    25     1    1
    10     1     2   ar
    11     2     3   ar
    12     3     4   ar
    13     4     7    1
    14     7     8    1
    15     8     9    1
    16     9    10    1
    17    10    13    1
    18    13    14    1
    19    14    15    1
    20    10    11    1
    21    11    12    1
    22     4     5   ar
    23     5     6   ar
    24     6    17    1
    25    17    18    2
    26    18    19    1
    27    19    20    1
    28    20    21    1
    29    21    22    1
    30    30    31   ar
    31    31    27   ar
    32     6     1   ar
    33    22    17    1
    34    12     7    1
    35    25    26    1
    36    15    16    1
    37    31    32    1
