@<TRIPOS>MOLECULE
*****
 28 31 0 0 0
SMALL
GASTEIGER

@<TRIPOS>ATOM
      1 O         141.1434  143.7438  161.7121 O.2     1  UNL1       -0.2522
      2 C         140.3666  142.5940  161.1424 C.2     1  UNL1        0.3080
      3 N         140.1678  142.4846  159.6597 N.am    1  UNL1       -0.2681
      4 N         139.7887  141.5537  162.0555 N.am    1  UNL1       -0.2559
      5 C         139.0303  140.4473  161.3839 C.3     1  UNL1        0.1425
      6 C         138.3415  139.2712  162.0104 C.3     1  UNL1        0.2268
      7 O         138.2409  138.9112  163.4630 O.3     1  UNL1       -0.4739
      8 C         138.8041  139.6381  164.6480 C.ar    1  UNL1        0.1362
      9 C         138.4719  138.9352  165.9308 C.ar    1  UNL1        0.0366
     10 C         138.9428  139.4990  167.2387 C.ar    1  UNL1        0.0031
     11 C         139.7459  140.7657  167.2637 C.ar    1  UNL1        0.0000
     12 C         140.0781  141.4685  165.9808 C.ar    1  UNL1        0.0004
     13 C         139.6072  140.9048  164.6730 C.ar    1  UNL1        0.0317
     14 C         140.0454  141.7572  163.5192 C.3     1  UNL1        0.1248
     15 H         139.6579  141.7300  159.2858 H       1  UNL1        0.1564
     16 C         140.7458  143.5250  158.7467 C.ar    1  UNL1        0.0524
     17 C         142.1722  143.4179  158.2955 C.ar    1  UNL1        0.0148
     18 C         142.7501  144.4583  157.3825 C.ar    1  UNL1        0.0021
     19 C         141.9016  145.6058  156.9207 C.ar    1  UNL1        0.0115
     20 C         140.4752  145.7128  157.3719 C.ar    1  UNL1        0.0589
     21 CL        139.6266  146.8604  156.9100 Cl      1  UNL1       -0.0822
     22 C         139.8972  144.6725  158.2849 C.ar    1  UNL1        0.0261
     23 C         140.2168  141.3295  168.5715 C.ar    1  UNL1        0.0031
     24 C         140.6208  142.7710  168.6648 C.ar    1  UNL1        0.0207
     25 C         141.0917  143.3348  169.9726 C.ar    1  UNL1        0.0989
     26 N         141.1585  142.4571  171.1872 N.ar    1  UNL1       -0.2423
     27 C         140.7544  141.0155  171.0939 C.ar    1  UNL1        0.0989
     28 C         140.2836  140.4518  169.7860 C.ar    1  UNL1        0.0207
@<TRIPOS>BOND
     1     1     2    2
     2     2     3   am
     3     3    16    1
     4    16    17   ar
     5    17    18   ar
     6    18    19   ar
     7    19    20   ar
     8    20    21    1
     9    20    22   ar
    10     2     4   am
    11     4     5    1
    12     5     6    1
    13     6     7    1
    14     7     8    1
    15     8     9   ar
    16     9    10   ar
    17    10    11   ar
    18    11    23    1
    19    23    24   ar
    20    24    25   ar
    21    25    26   ar
    22    26    27   ar
    23    27    28   ar
    24    11    12   ar
    25    12    13   ar
    26    13    14    1
    27    22    16   ar
    28    14     4    1
    29    13     8   ar
    30    28    23   ar
    31     3    15    1
@<TRIPOS>MOLECULE
*****
 28 31 0 0 0
SMALL
GASTEIGER

@<TRIPOS>ATOM
      1 O         142.7322  137.9581  159.9662 O.2     1  UNL1       -0.2522
      2 C         141.4417  138.4094  159.3492 C.2     1  UNL1        0.3080
      3 N         141.2324  138.2808  157.8695 N.am    1  UNL1       -0.2681
      4 N         140.3603  138.9893  160.2120 N.am    1  UNL1       -0.2559
      5 C         139.1109  139.4087  159.4956 C.3     1  UNL1        0.1425
      6 C         137.8639  140.0156  160.0674 C.3     1  UNL1        0.2268
      7 O         137.5584  140.3527  161.4966 O.3     1  UNL1       -0.4739
      8 C         138.4243  140.1665  162.7072 C.ar    1  UNL1        0.1362
      9 C         137.7340  140.6382  163.9526 C.ar    1  UNL1        0.0366
     10 C         138.4291  140.5404  165.2783 C.ar    1  UNL1        0.0031
     11 C         139.8144  139.9709  165.3585 C.ar    1  UNL1        0.0000
     12 C         140.5047  139.4991  164.1131 C.ar    1  UNL1        0.0004
     13 C         139.8096  139.5969  162.7875 C.ar    1  UNL1        0.0317
     14 C         140.6712  139.0730  161.6770 C.3     1  UNL1        0.1248
     15 H         140.3853  138.5770  157.4645 H       1  UNL1        0.1564
     16 C         142.3138  137.7009  157.0067 C.ar    1  UNL1        0.0524
     17 C         143.1737  138.6042  156.1734 C.ar    1  UNL1        0.0148
     18 C         144.2551  138.0243  155.3106 C.ar    1  UNL1        0.0021
     19 C         144.4765  136.5410  155.2812 C.ar    1  UNL1        0.0115
     20 C         143.6166  135.6377  156.1146 C.ar    1  UNL1        0.0589
     21 CL        143.8381  134.1544  156.0851 Cl      1  UNL1       -0.0822
     22 C         142.5353  136.2176  156.9773 C.ar    1  UNL1        0.0261
     23 C         140.5095  139.8731  166.6841 C.ar    1  UNL1        0.0031
     24 C         141.9716  139.5432  166.7418 C.ar    1  UNL1        0.0207
     25 C         142.6667  139.4454  168.0674 C.ar    1  UNL1        0.0989
     26 N         141.8996  139.6775  169.3354 N.ar    1  UNL1       -0.2423
     27 C         140.4375  140.0074  169.2778 C.ar    1  UNL1        0.0989
     28 C         139.7424  140.1052  167.9521 C.ar    1  UNL1        0.0207
@<TRIPOS>BOND
     1     1     2    2
     2     2     3   am
     3     3    16    1
     4    16    17   ar
     5    17    18   ar
     6    18    19   ar
     7    19    20   ar
     8    20    21    1
     9    20    22   ar
    10     2     4   am
    11     4     5    1
    12     5     6    1
    13     6     7    1
    14     7     8    1
    15     8     9   ar
    16     9    10   ar
    17    10    11   ar
    18    11    23    1
    19    23    24   ar
    20    24    25   ar
    21    25    26   ar
    22    26    27   ar
    23    27    28   ar
    24    11    12   ar
    25    12    13   ar
    26    13    14    1
    27    22    16   ar
    28    14     4    1
    29    13     8   ar
    30    28    23   ar
    31     3    15    1
@<TRIPOS>MOLECULE
*****
 28 31 0 0 0
SMALL
GASTEIGER

@<TRIPOS>ATOM
      1 O         142.5530  141.7896  161.6062 O.2     1  UNL1       -0.2522
      2 C         141.6396  140.6981  161.1326 C.2     1  UNL1        0.3080
      3 N         141.6335  140.3000  159.6865 N.am    1  UNL1       -0.2681
      4 N         140.7324  140.0047  162.1054 N.am    1  UNL1       -0.2559
      5 C         139.8604  138.9289  161.5287 C.3     1  UNL1        0.1425
      6 C         138.8577  138.0615  162.2304 C.3     1  UNL1        0.2268
      7 O         138.4795  138.0556  163.6818 O.3     1  UNL1       -0.4739
      8 C         139.0103  138.9157  164.7902 C.ar    1  UNL1        0.1362
      9 C         138.3598  138.5844  166.1005 C.ar    1  UNL1        0.0366
     10 C         138.7495  139.3315  167.3415 C.ar    1  UNL1        0.0031
     11 C         139.7899  140.4098  167.2721 C.ar    1  UNL1        0.0000
     12 C         140.4405  140.7411  165.9617 C.ar    1  UNL1        0.0004
     13 C         140.0507  139.9940  164.7208 C.ar    1  UNL1        0.0317
     14 C         140.8170  140.4786  163.5259 C.3     1  UNL1        0.1248
     15 H         141.0340  139.5836  159.3757 H       1  UNL1        0.1564
     16 C         142.5408  140.9934  158.7138 C.ar    1  UNL1        0.0524
     17 C         143.8949  140.4225  158.4133 C.ar    1  UNL1        0.0148
     18 C         144.8021  141.1160  157.4406 C.ar    1  UNL1        0.0021
     19 C         144.3552  142.3803  156.7685 C.ar    1  UNL1        0.0115
     20 C         143.0011  142.9512  157.0691 C.ar    1  UNL1        0.0589
     21 CL        142.5542  144.2156  156.3969 Cl      1  UNL1       -0.0822
     22 C         142.0939  142.2578  158.0417 C.ar    1  UNL1        0.0261
     23 C         140.1796  141.1569  168.5131 C.ar    1  UNL1        0.0031
     24 C         140.4014  142.6394  168.4575 C.ar    1  UNL1        0.0207
     25 C         140.7912  143.3864  169.6984 C.ar    1  UNL1        0.0989
     26 N         140.9592  142.6510  170.9950 N.ar    1  UNL1       -0.2423
     27 C         140.7374  141.1686  171.0506 C.ar    1  UNL1        0.0989
     28 C         140.3476  140.4215  169.8095 C.ar    1  UNL1        0.0207
@<TRIPOS>BOND
     1     1     2    2
     2     2     3   am
     3     3    16    1
     4    16    17   ar
     5    17    18   ar
     6    18    19   ar
     7    19    20   ar
     8    20    21    1
     9    20    22   ar
    10     2     4   am
    11     4     5    1
    12     5     6    1
    13     6     7    1
    14     7     8    1
    15     8     9   ar
    16     9    10   ar
    17    10    11   ar
    18    11    23    1
    19    23    24   ar
    20    24    25   ar
    21    25    26   ar
    22    26    27   ar
    23    27    28   ar
    24    11    12   ar
    25    12    13   ar
    26    13    14    1
    27    22    16   ar
    28    14     4    1
    29    13     8   ar
    30    28    23   ar
    31     3    15    1
@<TRIPOS>MOLECULE
*****
 28 31 0 0 0
SMALL
GASTEIGER

@<TRIPOS>ATOM
      1 O         141.3162  138.1330  160.7048 O.2     1  UNL1       -0.2522
      2 C         142.2713  139.1789  160.2109 C.2     1  UNL1        0.3080
      3 N         142.6419  139.2301  158.7583 N.am    1  UNL1       -0.2681
      4 N         142.8557  140.1735  161.1696 N.am    1  UNL1       -0.2559
      5 C         143.7989  141.1758  160.5729 C.3     1  UNL1        0.1425
      6 C         144.5390  142.2865  161.2576 C.3     1  UNL1        0.2268
      7 O         144.5187  142.6692  162.7077 O.3     1  UNL1       -0.4739
      8 C         143.7533  142.0358  163.8316 C.ar    1  UNL1        0.1362
      9 C         144.0178  142.7303  165.1345 C.ar    1  UNL1        0.0366
     10 C         143.3480  142.2522  166.3887 C.ar    1  UNL1        0.0031
     11 C         142.4139  141.0796  166.3399 C.ar    1  UNL1        0.0000
     12 C         142.1495  140.3851  165.0368 C.ar    1  UNL1        0.0004
     13 C         142.8192  140.8632  163.7827 C.ar    1  UNL1        0.0317
     14 C         142.4197  140.0344  162.5980 C.3     1  UNL1        0.1248
     15 H         143.2687  139.9166  158.4341 H       1  UNL1        0.1564
     16 C         142.0574  138.2354  157.7996 C.ar    1  UNL1        0.0524
     17 C         140.6915  138.4628  157.2229 C.ar    1  UNL1        0.0148
     18 C         140.1072  137.4680  156.2642 C.ar    1  UNL1        0.0021
     19 C         140.8887  136.2460  155.8822 C.ar    1  UNL1        0.0115
     20 C         142.2545  136.0188  156.4589 C.ar    1  UNL1        0.0589
     21 CL        143.0360  134.7967  156.0769 Cl      1  UNL1       -0.0822
     22 C         142.8389  137.0134  157.4176 C.ar    1  UNL1        0.0261
     23 C         141.7442  140.6015  167.5940 C.ar    1  UNL1        0.0031
     24 C         140.2701  140.8063  167.7819 C.ar    1  UNL1        0.0207
     25 C         139.6004  140.3282  169.0360 C.ar    1  UNL1        0.0989
     26 N         140.4047  139.6453  170.1023 N.ar    1  UNL1       -0.2423
     27 C         141.8788  139.4405  169.9144 C.ar    1  UNL1        0.0989
     28 C         142.5485  139.9187  168.6602 C.ar    1  UNL1        0.0207
@<TRIPOS>BOND
     1     1     2    2
     2     2     3   am
     3     3    16    1
     4    16    17   ar
     5    17    18   ar
     6    18    19   ar
     7    19    20   ar
     8    20    21    1
     9    20    22   ar
    10     2     4   am
    11     4     5    1
    12     5     6    1
    13     6     7    1
    14     7     8    1
    15     8     9   ar
    16     9    10   ar
    17    10    11   ar
    18    11    23    1
    19    23    24   ar
    20    24    25   ar
    21    25    26   ar
    22    26    27   ar
    23    27    28   ar
    24    11    12   ar
    25    12    13   ar
    26    13    14    1
    27    22    16   ar
    28    14     4    1
    29    13     8   ar
    30    28    23   ar
    31     3    15    1
@<TRIPOS>MOLECULE
*****
 28 31 0 0 0
SMALL
GASTEIGER

@<TRIPOS>ATOM
      1 O         143.5040  141.5055  160.5469 O.2     1  UNL1       -0.2522
      2 C         142.7568  142.6832  159.9950 C.2     1  UNL1        0.3080
      3 N         142.9694  143.1063  158.5717 N.am    1  UNL1       -0.2681
      4 N         141.7970  143.4378  160.8663 N.am    1  UNL1       -0.2559
      5 C         141.1025  144.5980  160.2168 C.3     1  UNL1        0.1425
      6 C         140.0980  145.5394  160.8126 C.3     1  UNL1        0.2268
      7 O         139.5401  145.5532  162.2048 O.3     1  UNL1       -0.4739
      8 C         139.8486  144.6290  163.3453 C.ar    1  UNL1        0.1362
      9 C         139.0679  144.9939  164.5729 C.ar    1  UNL1        0.0366
     10 C         139.2300  144.1924  165.8306 C.ar    1  UNL1        0.0031
     11 C         140.1728  143.0262  165.8604 C.ar    1  UNL1        0.0000
     12 C         140.9536  142.6613  164.6326 C.ar    1  UNL1        0.0004
     13 C         140.7915  143.4627  163.3751 C.ar    1  UNL1        0.0317
     14 C         141.6586  142.9327  162.2718 C.3     1  UNL1        0.1248
     15 H         142.4790  143.8792  158.2094 H       1  UNL1        0.1564
     16 C         143.9293  142.3516  157.7003 C.ar    1  UNL1        0.0524
     17 C         143.4553  141.1649  156.9148 C.ar    1  UNL1        0.0148
     18 C         144.4151  140.4103  156.0435 C.ar    1  UNL1        0.0021
     19 C         145.8490  140.8423  155.9577 C.ar    1  UNL1        0.0115
     20 C         146.3230  142.0289  156.7432 C.ar    1  UNL1        0.0589
     21 CL        147.7569  142.4609  156.6574 Cl      1  UNL1       -0.0822
     22 C         145.3632  142.7836  157.6145 C.ar    1  UNL1        0.0261
     23 C         140.3349  142.2248  167.1179 C.ar    1  UNL1        0.0031
     24 C         140.0691  140.7486  167.1061 C.ar    1  UNL1        0.0207
     25 C         140.2312  139.9472  168.3636 C.ar    1  UNL1        0.0989
     26 N         140.6592  140.6220  169.6331 N.ar    1  UNL1       -0.2423
     27 C         140.9250  142.0982  169.6450 C.ar    1  UNL1        0.0989
     28 C         140.7629  142.8996  168.3873 C.ar    1  UNL1        0.0207
@<TRIPOS>BOND
     1     1     2    2
     2     2     3   am
     3     3    16    1
     4    16    17   ar
     5    17    18   ar
     6    18    19   ar
     7    19    20   ar
     8    20    21    1
     9    20    22   ar
    10     2     4   am
    11     4     5    1
    12     5     6    1
    13     6     7    1
    14     7     8    1
    15     8     9   ar
    16     9    10   ar
    17    10    11   ar
    18    11    23    1
    19    23    24   ar
    20    24    25   ar
    21    25    26   ar
    22    26    27   ar
    23    27    28   ar
    24    11    12   ar
    25    12    13   ar
    26    13    14    1
    27    22    16   ar
    28    14     4    1
    29    13     8   ar
    30    28    23   ar
    31     3    15    1
@<TRIPOS>MOLECULE
*****
 28 31 0 0 0
SMALL
GASTEIGER

@<TRIPOS>ATOM
      1 O         142.4081  137.3460  159.6426 O.2     1  UNL1       -0.2522
      2 C         143.0040  138.4355  158.8012 C.2     1  UNL1        0.3080
      3 N         143.1289  138.2539  157.3175 N.am    1  UNL1       -0.2681
      4 N         143.4750  139.7065  159.4436 N.am    1  UNL1       -0.2559
      5 C         144.0543  140.7302  158.5127 C.3     1  UNL1        0.1425
      6 C         144.6062  142.0861  158.8403 C.3     1  UNL1        0.2268
      7 O         144.7149  142.7530  160.1794 O.3     1  UNL1       -0.4739
      8 C         144.2988  142.2289  161.5218 C.ar    1  UNL1        0.1362
      9 C         144.5852  143.2205  162.6101 C.ar    1  UNL1        0.0366
     10 C         144.2439  142.8917  164.0333 C.ar    1  UNL1        0.0031
     11 C         143.6162  141.5712  164.3681 C.ar    1  UNL1        0.0000
     12 C         143.3298  140.5794  163.2797 C.ar    1  UNL1        0.0004
     13 C         143.6711  140.9083  161.8566 C.ar    1  UNL1        0.0317
     14 C         143.3045  139.7858  160.9316 C.3     1  UNL1        0.1248
     15 H         143.5200  138.9690  156.7653 H       1  UNL1        0.1564
     16 C         142.6579  136.9828  156.6752 C.ar    1  UNL1        0.0524
     17 C         141.3011  136.9223  156.0384 C.ar    1  UNL1        0.0148
     18 C         140.8302  135.6512  155.3960 C.ar    1  UNL1        0.0021
     19 C         141.7159  134.4407  155.3906 C.ar    1  UNL1        0.0115
     20 C         143.0726  134.5012  156.0274 C.ar    1  UNL1        0.0589
     21 CL        143.9584  133.2906  156.0219 Cl      1  UNL1       -0.0822
     22 C         143.5436  135.7722  156.6697 C.ar    1  UNL1        0.0261
     23 C         143.2749  141.2423  165.7913 C.ar    1  UNL1        0.0031
     24 C         143.2184  142.3324  166.8201 C.ar    1  UNL1        0.0207
     25 C         142.8771  142.0035  168.2432 C.ar    1  UNL1        0.0989
     26 N         142.5923  140.5845  168.6376 N.ar    1  UNL1       -0.2423
     27 C         142.6488  139.4944  167.6087 C.ar    1  UNL1        0.0989
     28 C         142.9901  139.8234  166.1855 C.ar    1  UNL1        0.0207
@<TRIPOS>BOND
     1     1     2    2
     2     2     3   am
     3     3    16    1
     4    16    17   ar
     5    17    18   ar
     6    18    19   ar
     7    19    20   ar
     8    20    21    1
     9    20    22   ar
    10     2     4   am
    11     4     5    1
    12     5     6    1
    13     6     7    1
    14     7     8    1
    15     8     9   ar
    16     9    10   ar
    17    10    11   ar
    18    11    23    1
    19    23    24   ar
    20    24    25   ar
    21    25    26   ar
    22    26    27   ar
    23    27    28   ar
    24    11    12   ar
    25    12    13   ar
    26    13    14    1
    27    22    16   ar
    28    14     4    1
    29    13     8   ar
    30    28    23   ar
    31     3    15    1
@<TRIPOS>MOLECULE
*****
 28 31 0 0 0
SMALL
GASTEIGER

@<TRIPOS>ATOM
      1 O         143.1019  139.4061  160.4641 O.2     1  UNL1       -0.2522
      2 C         141.6819  139.0126  160.1838 C.2     1  UNL1        0.3080
      3 N         141.2739  138.6147  158.7963 N.am    1  UNL1       -0.2681
      4 N         140.6699  139.0172  161.2909 N.am    1  UNL1       -0.2559
      5 C         139.2798  138.6074  160.9036 C.3     1  UNL1        0.1425
      6 C         138.0582  138.5102  161.7688 C.3     1  UNL1        0.2268
      7 O         137.9251  138.7986  163.2347 O.3     1  UNL1       -0.4739
      8 C         138.9805  139.2555  164.1977 C.ar    1  UNL1        0.1362
      9 C         138.4240  139.4267  165.5800 C.ar    1  UNL1        0.0366
     10 C         139.3168  139.8792  166.6973 C.ar    1  UNL1        0.0031
     11 C         140.7661  140.1605  166.4321 C.ar    1  UNL1        0.0000
     12 C         141.3226  139.9894  165.0496 C.ar    1  UNL1        0.0004
     13 C         140.4298  139.5369  163.9325 C.ar    1  UNL1        0.0317
     14 C         141.1816  139.4308  162.6388 C.3     1  UNL1        0.1248
     15 H         140.3418  138.3564  158.6123 H       1  UNL1        0.1564
     16 C         142.2860  138.6101  157.6891 C.ar    1  UNL1        0.0524
     17 C         142.8332  139.9058  157.1680 C.ar    1  UNL1        0.0148
     18 C         143.8453  139.9012  156.0609 C.ar    1  UNL1        0.0021
     19 C         144.3100  138.6010  155.4749 C.ar    1  UNL1        0.0115
     20 C         143.7627  137.3054  155.9960 C.ar    1  UNL1        0.0589
     21 CL        144.2275  136.0051  155.4100 Cl      1  UNL1       -0.0822
     22 C         142.7507  137.3099  157.1031 C.ar    1  UNL1        0.0261
     23 C         141.6589  140.6130  167.5493 C.ar    1  UNL1        0.0031
     24 C         141.8321  139.7532  168.7661 C.ar    1  UNL1        0.0207
     25 C         142.7249  140.2057  169.8833 C.ar    1  UNL1        0.0989
     26 N         143.4446  141.5180  169.7836 N.ar    1  UNL1       -0.2423
     27 C         143.2714  142.3778  168.5668 C.ar    1  UNL1        0.0989
     28 C         142.3786  141.9253  167.4496 C.ar    1  UNL1        0.0207
@<TRIPOS>BOND
     1     1     2    2
     2     2     3   am
     3     3    16    1
     4    16    17   ar
     5    17    18   ar
     6    18    19   ar
     7    19    20   ar
     8    20    21    1
     9    20    22   ar
    10     2     4   am
    11     4     5    1
    12     5     6    1
    13     6     7    1
    14     7     8    1
    15     8     9   ar
    16     9    10   ar
    17    10    11   ar
    18    11    23    1
    19    23    24   ar
    20    24    25   ar
    21    25    26   ar
    22    26    27   ar
    23    27    28   ar
    24    11    12   ar
    25    12    13   ar
    26    13    14    1
    27    22    16   ar
    28    14     4    1
    29    13     8   ar
    30    28    23   ar
    31     3    15    1
@<TRIPOS>MOLECULE
*****
 28 31 0 0 0
SMALL
GASTEIGER

@<TRIPOS>ATOM
      1 O         142.3864  141.4874  164.2221 O.2     1  UNL1       -0.2522
      2 C         141.4665  142.6677  164.3237 C.2     1  UNL1        0.3080
      3 N         140.7798  142.9739  165.6217 N.am    1  UNL1       -0.2681
      4 N         141.2332  143.5420  163.1273 N.am    1  UNL1       -0.2559
      5 C         140.2962  144.6946  163.3364 C.3     1  UNL1        0.1425
      6 C         139.8624  145.7380  162.3498 C.3     1  UNL1        0.2268
      7 O         140.2583  145.8864  160.9108 O.3     1  UNL1       -0.4739
      8 C         141.1859  145.0282  160.1026 C.ar    1  UNL1        0.1362
      9 C         141.3076  145.5285  158.6938 C.ar    1  UNL1        0.0366
     10 C         142.1901  144.8101  157.7163 C.ar    1  UNL1        0.0031
     11 C         142.9508  143.5915  158.1478 C.ar    1  UNL1        0.0000
     12 C         142.8291  143.0912  159.5567 C.ar    1  UNL1        0.0004
     13 C         141.9466  143.8095  160.5341 C.ar    1  UNL1        0.0317
     14 C         141.9676  143.1482  161.8803 C.3     1  UNL1        0.1248
     15 H         140.1760  143.7486  165.6884 H       1  UNL1        0.1564
     16 C         141.0131  142.0995  166.8181 C.ar    1  UNL1        0.0524
     17 C         140.0718  140.9706  167.1169 C.ar    1  UNL1        0.0148
     18 C         140.3051  140.0964  168.3133 C.ar    1  UNL1        0.0021
     19 C         141.4797  140.3511  169.2107 C.ar    1  UNL1        0.0115
     20 C         142.4210  141.4800  168.9118 C.ar    1  UNL1        0.0589
     21 CL        143.5957  141.7346  169.8092 Cl      1  UNL1       -0.0822
     22 C         142.1877  142.3542  167.7155 C.ar    1  UNL1        0.0261
     23 C         143.8333  142.8732  157.1705 C.ar    1  UNL1        0.0031
     24 C         143.3798  142.6769  155.7542 C.ar    1  UNL1        0.0207
     25 C         144.2623  141.9586  154.7769 C.ar    1  UNL1        0.0989
     26 N         145.5982  141.4364  155.2158 N.ar    1  UNL1       -0.2423
     27 C         146.0517  141.6326  156.6321 C.ar    1  UNL1        0.0989
     28 C         145.1692  142.3510  157.6095 C.ar    1  UNL1        0.0207
@<TRIPOS>BOND
     1     1     2    2
     2     2     3   am
     3     3    16    1
     4    16    17   ar
     5    17    18   ar
     6    18    19   ar
     7    19    20   ar
     8    20    21    1
     9    20    22   ar
    10     2     4   am
    11     4     5    1
    12     5     6    1
    13     6     7    1
    14     7     8    1
    15     8     9   ar
    16     9    10   ar
    17    10    11   ar
    18    11    23    1
    19    23    24   ar
    20    24    25   ar
    21    25    26   ar
    22    26    27   ar
    23    27    28   ar
    24    11    12   ar
    25    12    13   ar
    26    13    14    1
    27    22    16   ar
    28    14     4    1
    29    13     8   ar
    30    28    23   ar
    31     3    15    1
@<TRIPOS>MOLECULE
*****
 28 31 0 0 0
SMALL
GASTEIGER

@<TRIPOS>ATOM
      1 O         141.2049  139.8730  164.9808 O.2     1  UNL1       -0.2522
      2 C         140.2874  141.0571  164.9016 C.2     1  UNL1        0.3080
      3 N         139.9831  141.8539  166.1355 N.am    1  UNL1       -0.2681
      4 N         139.6744  141.4443  163.5885 N.am    1  UNL1       -0.2559
      5 C         138.7728  142.6428  163.6196 C.3     1  UNL1        0.1425
      6 C         138.0180  143.2749  162.4877 C.3     1  UNL1        0.2268
      7 O         137.9785  142.8646  161.0456 O.3     1  UNL1       -0.4739
      8 C         138.6839  141.7210  160.3788 C.ar    1  UNL1        0.1362
      9 C         138.3709  141.6637  158.9130 C.ar    1  UNL1        0.0366
     10 C         138.9770  140.5905  158.0580 C.ar    1  UNL1        0.0031
     11 C         139.8962  139.5747  158.6688 C.ar    1  UNL1        0.0000
     12 C         140.2092  139.6320  160.1348 C.ar    1  UNL1        0.0004
     13 C         139.6031  140.7051  160.9897 C.ar    1  UNL1        0.0317
     14 C         140.0438  140.5821  162.4182 C.3     1  UNL1        0.1248
     15 H         139.3810  142.6310  166.0835 H       1  UNL1        0.1564
     16 C         140.5963  141.4665  167.4486 C.ar    1  UNL1        0.0524
     17 C         139.9184  140.4538  168.3231 C.ar    1  UNL1        0.0148
     18 C         140.5316  140.0665  169.6362 C.ar    1  UNL1        0.0021
     19 C         141.8225  140.6920  170.0747 C.ar    1  UNL1        0.0115
     20 C         142.5003  141.7048  169.2001 C.ar    1  UNL1        0.0589
     21 CL        143.7912  142.3303  169.6386 Cl      1  UNL1       -0.0822
     22 C         141.8872  142.0920  167.8871 C.ar    1  UNL1        0.0261
     23 C         140.5023  138.5015  157.8139 C.ar    1  UNL1        0.0031
     24 C         139.6972  137.8743  156.7146 C.ar    1  UNL1        0.0207
     25 C         140.3033  136.8011  155.8597 C.ar    1  UNL1        0.0989
     26 N         141.7146  136.3552  156.1040 N.ar    1  UNL1       -0.2423
     27 C         142.5196  136.9825  157.2033 C.ar    1  UNL1        0.0989
     28 C         141.9134  138.0557  158.0583 C.ar    1  UNL1        0.0207
@<TRIPOS>BOND
     1     1     2    2
     2     2     3   am
     3     3    16    1
     4    16    17   ar
     5    17    18   ar
     6    18    19   ar
     7    19    20   ar
     8    20    21    1
     9    20    22   ar
    10     2     4   am
    11     4     5    1
    12     5     6    1
    13     6     7    1
    14     7     8    1
    15     8     9   ar
    16     9    10   ar
    17    10    11   ar
    18    11    23    1
    19    23    24   ar
    20    24    25   ar
    21    25    26   ar
    22    26    27   ar
    23    27    28   ar
    24    11    12   ar
    25    12    13   ar
    26    13    14    1
    27    22    16   ar
    28    14     4    1
    29    13     8   ar
    30    28    23   ar
    31     3    15    1
