@<TRIPOS>MOLECULE
*****
 33 38 0 0 0
SMALL
GASTEIGER

@<TRIPOS>ATOM
      1 N         139.6150  139.6859  162.4882 N.pl3   1  UNL1       -0.3425
      2 C         139.6031  139.6121  163.9864 C.ar    1  UNL1        0.1316
      3 N         138.2991  139.6244  164.7276 N.ar    1  UNL1       -0.2093
      4 C         138.2872  139.5506  166.2257 C.ar    1  UNL1        0.2014
      5 N         139.5795  139.4644  166.9826 N.ar    1  UNL1       -0.2050
      6 C         140.8834  139.4521  166.2414 C.ar    1  UNL1        0.1653
      7 C         140.8952  139.5259  164.7432 C.ar    1  UNL1        0.0860
      8 C         142.3244  139.4946  164.2889 C.ar    1  UNL1        0.1065
      9 N         143.1959  139.4014  165.5062 N.ar    1  UNL1       -0.1679
     10 N         142.3053  139.3751  166.7129 N.ar    1  UNL1       -0.2340
     11 H         138.7669  139.7425  161.9914 H       1  UNL1        0.1437
     12 H         140.4708  139.6778  162.0017 H       1  UNL1        0.1437
     13 C         142.7989  139.5472  162.8668 C.ar    1  UNL1        0.0196
     14 C         142.9711  138.2780  162.0862 C.ar    1  UNL1        0.0031
     15 C         143.4455  138.3306  160.6642 C.ar    1  UNL1        0.0193
     16 C         143.7476  139.6525  160.0228 C.ar    1  UNL1        0.0844
     17 N         144.2221  139.7051  158.6007 N.ar    1  UNL1       -0.2117
     18 C         144.5242  141.0270  157.9593 C.ar    1  UNL1        0.2247
     19 C         144.3519  142.2963  158.7400 C.ar    1  UNL1        0.0577
     20 C         143.8775  142.2436  160.1620 C.ar    1  UNL1        0.0063
     21 C         143.5754  140.9217  160.8034 C.ar    1  UNL1        0.0180
     22 C         143.1010  140.8691  162.2254 C.ar    1  UNL1        0.0031
     23 O         144.9986  141.0797  156.5373 O.3     1  UNL1       -0.4640
     24 C         146.3396  141.6698  156.2154 C.3     1  UNL1        0.1678
     25 C         147.5969  141.6685  155.3974 C.3     1  UNL1        0.0473
     26 C         147.4048  142.6932  156.4758 C.3     1  UNL1        0.0473
     27 C         142.7573  139.2873  168.1405 C.3     1  UNL1        0.1292
     28 C         142.3751  140.3612  169.1156 C.3     1  UNL1        0.0295
     29 C         141.3389  140.0872  170.1649 C.3     1  UNL1        0.0341
     30 C         140.9568  141.1611  171.1400 C.3     1  UNL1        0.1422
     31 O         141.6108  142.5089  171.0657 O.3     1  UNL1       -0.3538
     32 C         142.6470  142.7829  170.0163 C.3     1  UNL1        0.1422
     33 C         143.0292  141.7091  169.0412 C.3     1  UNL1        0.0341
@<TRIPOS>BOND
     1     1     2    1
     2     2     3   ar
     3     3     4   ar
     4     4     5   ar
     5     5     6   ar
     6     6     7   ar
     7     7     8   ar
     8     8    13    1
     9    13    14   ar
    10    14    15   ar
    11    15    16   ar
    12    16    17   ar
    13    17    18   ar
    14    18    23    1
    15    23    24    1
    16    24    25    1
    17    25    26    1
    18    18    19   ar
    19    19    20   ar
    20    20    21   ar
    21    21    22   ar
    22     8     9   ar
    23     9    10   ar
    24    10    27    1
    25    27    28    1
    26    28    29    1
    27    29    30    1
    28    30    31    1
    29    31    32    1
    30    32    33    1
    31     7     2   ar
    32    22    13   ar
    33    33    28    1
    34    10     6   ar
    35    21    16   ar
    36    26    24    1
    37     1    11    1
    38     1    12    1
@<TRIPOS>MOLECULE
*****
 33 38 0 0 0
SMALL
GASTEIGER

@<TRIPOS>ATOM
      1 N         138.4692  141.5883  162.6958 N.pl3   1  UNL1       -0.3425
      2 C         138.9329  141.1473  164.0525 C.ar    1  UNL1        0.1316
      3 N         138.2173  140.0386  164.7659 N.ar    1  UNL1       -0.2093
      4 C         138.6810  139.5977  166.1226 C.ar    1  UNL1        0.2014
      5 N         139.8602  140.2654  166.7658 N.ar    1  UNL1       -0.2050
      6 C         140.5757  141.3740  166.0524 C.ar    1  UNL1        0.1653
      7 C         140.1120  141.8149  164.6957 C.ar    1  UNL1        0.0860
      8 C         141.0091  142.9266  164.2379 C.ar    1  UNL1        0.1065
      9 N         142.0272  143.1727  165.3116 N.ar    1  UNL1       -0.1679
     10 N         141.7594  142.2131  166.4330 N.ar    1  UNL1       -0.2340
     11 H         137.6953  141.1500  162.2736 H       1  UNL1        0.1437
     12 H         138.9388  142.3159  162.2276 H       1  UNL1        0.1437
     13 C         140.9061  143.6629  162.9351 C.ar    1  UNL1        0.0196
     14 C         139.9997  144.8520  162.8152 C.ar    1  UNL1        0.0031
     15 C         139.8968  145.5882  161.5124 C.ar    1  UNL1        0.0193
     16 C         140.7002  145.1353  160.3295 C.ar    1  UNL1        0.0844
     17 N         140.5972  145.8716  159.0266 N.ar    1  UNL1       -0.2117
     18 C         141.4007  145.4187  157.8437 C.ar    1  UNL1        0.2247
     19 C         142.3071  144.2295  157.9636 C.ar    1  UNL1        0.0577
     20 C         142.4101  143.4933  159.2664 C.ar    1  UNL1        0.0063
     21 C         141.6066  143.9462  160.4493 C.ar    1  UNL1        0.0180
     22 C         141.7096  143.2100  161.7521 C.ar    1  UNL1        0.0031
     23 O         141.2977  146.1549  156.5409 O.3     1  UNL1       -0.4640
     24 C         139.9655  146.6526  156.0639 C.3     1  UNL1        0.1678
     25 C         138.9321  147.7378  155.9972 C.3     1  UNL1        0.0473
     26 C         138.6914  146.4294  155.3043 C.3     1  UNL1        0.0473
     27 C         142.5384  142.1107  167.7108 C.3     1  UNL1        0.1292
     28 C         141.8230  142.1310  169.0290 C.3     1  UNL1        0.0295
     29 C         142.2469  141.2008  170.1268 C.3     1  UNL1        0.0341
     30 C         141.5315  141.2211  171.4450 C.3     1  UNL1        0.1422
     31 O         140.3923  142.1717  171.6655 O.3     1  UNL1       -0.3538
     32 C         139.9684  143.1019  170.5678 C.3     1  UNL1        0.1422
     33 C         140.6838  143.0815  169.2496 C.3     1  UNL1        0.0341
@<TRIPOS>BOND
     1     1     2    1
     2     2     3   ar
     3     3     4   ar
     4     4     5   ar
     5     5     6   ar
     6     6     7   ar
     7     7     8   ar
     8     8    13    1
     9    13    14   ar
    10    14    15   ar
    11    15    16   ar
    12    16    17   ar
    13    17    18   ar
    14    18    23    1
    15    23    24    1
    16    24    25    1
    17    25    26    1
    18    18    19   ar
    19    19    20   ar
    20    20    21   ar
    21    21    22   ar
    22     8     9   ar
    23     9    10   ar
    24    10    27    1
    25    27    28    1
    26    28    29    1
    27    29    30    1
    28    30    31    1
    29    31    32    1
    30    32    33    1
    31     7     2   ar
    32    22    13   ar
    33    33    28    1
    34    10     6   ar
    35    21    16   ar
    36    26    24    1
    37     1    11    1
    38     1    12    1
@<TRIPOS>MOLECULE
*****
 33 38 0 0 0
SMALL
GASTEIGER

@<TRIPOS>ATOM
      1 N         139.3290  137.6052  163.8377 N.pl3   1  UNL1       -0.3425
      2 C         139.3334  138.4696  165.0636 C.ar    1  UNL1        0.1316
      3 N         138.2711  138.2950  166.1081 N.ar    1  UNL1       -0.2093
      4 C         138.2754  139.1593  167.3340 C.ar    1  UNL1        0.2014
      5 N         139.3421  140.1983  167.5153 N.ar    1  UNL1       -0.2050
      6 C         140.4043  140.3729  166.4708 C.ar    1  UNL1        0.1653
      7 C         140.4000  139.5085  165.2449 C.ar    1  UNL1        0.0860
      8 C         141.5676  139.9077  164.3920 C.ar    1  UNL1        0.1065
      9 N         142.2936  141.0189  165.0908 N.ar    1  UNL1       -0.1679
     10 N         141.5747  141.3064  166.3756 N.ar    1  UNL1       -0.2340
     11 H         138.6290  136.9233  163.7187 H       1  UNL1        0.1437
     12 H         140.0262  137.7198  163.1521 H       1  UNL1        0.1437
     13 C         141.9432  139.3021  163.0721 C.ar    1  UNL1        0.0196
     14 C         143.1848  138.4687  162.9555 C.ar    1  UNL1        0.0031
     15 C         143.5604  137.8631  161.6356 C.ar    1  UNL1        0.0193
     16 C         142.6944  138.0910  160.4323 C.ar    1  UNL1        0.0844
     17 N         143.0700  137.4854  159.1123 N.ar    1  UNL1       -0.2117
     18 C         142.2040  137.7133  157.9090 C.ar    1  UNL1        0.2247
     19 C         140.9623  138.5468  158.0256 C.ar    1  UNL1        0.0577
     20 C         140.5867  139.1524  159.3455 C.ar    1  UNL1        0.0063
     21 C         141.4528  138.9245  160.5489 C.ar    1  UNL1        0.0180
     22 C         141.0772  139.5300  161.8688 C.ar    1  UNL1        0.0031
     23 O         142.5795  137.1077  156.5891 O.3     1  UNL1       -0.4640
     24 C         142.7037  135.6188  156.4552 C.3     1  UNL1        0.1678
     25 C         143.3312  134.3242  156.8795 C.3     1  UNL1        0.0473
     26 C         142.2910  134.3347  155.7988 C.3     1  UNL1        0.0473
     27 C         141.9587  142.3450  167.3874 C.3     1  UNL1        0.1292
     28 C         141.4778  142.2265  168.8033 C.3     1  UNL1        0.0295
     29 C         142.0967  141.2165  169.7235 C.3     1  UNL1        0.0341
     30 C         141.6158  141.0980  171.1394 C.3     1  UNL1        0.1422
     31 O         140.5161  141.9896  171.6350 O.3     1  UNL1       -0.3538
     32 C         139.8972  142.9996  170.7148 C.3     1  UNL1        0.1422
     33 C         140.3780  143.1181  169.2990 C.3     1  UNL1        0.0341
@<TRIPOS>BOND
     1     1     2    1
     2     2     3   ar
     3     3     4   ar
     4     4     5   ar
     5     5     6   ar
     6     6     7   ar
     7     7     8   ar
     8     8    13    1
     9    13    14   ar
    10    14    15   ar
    11    15    16   ar
    12    16    17   ar
    13    17    18   ar
    14    18    23    1
    15    23    24    1
    16    24    25    1
    17    25    26    1
    18    18    19   ar
    19    19    20   ar
    20    20    21   ar
    21    21    22   ar
    22     8     9   ar
    23     9    10   ar
    24    10    27    1
    25    27    28    1
    26    28    29    1
    27    29    30    1
    28    30    31    1
    29    31    32    1
    30    32    33    1
    31     7     2   ar
    32    22    13   ar
    33    33    28    1
    34    10     6   ar
    35    21    16   ar
    36    26    24    1
    37     1    11    1
    38     1    12    1
@<TRIPOS>MOLECULE
*****
 33 38 0 0 0
SMALL
GASTEIGER

@<TRIPOS>ATOM
      1 N         137.4212  140.2313  160.9849 N.pl3   1  UNL1       -0.3425
      2 C         138.1426  139.9913  159.6918 C.ar    1  UNL1        0.1316
      3 N         137.5391  140.4546  158.3991 N.ar    1  UNL1       -0.2093
      4 C         138.2605  140.2146  157.1061 C.ar    1  UNL1        0.2014
      5 N         139.5855  139.5113  157.1058 N.ar    1  UNL1       -0.2050
      6 C         140.1889  139.0480  158.3985 C.ar    1  UNL1        0.1653
      7 C         139.4675  139.2880  159.6915 C.ar    1  UNL1        0.0860
      8 C         140.3034  138.7216  160.8008 C.ar    1  UNL1        0.1065
      9 N         141.5415  138.1315  160.1933 N.ar    1  UNL1       -0.1679
     10 N         141.4707  138.3332  158.7086 N.ar    1  UNL1       -0.2340
     11 H         136.5516  140.6929  160.9851 H       1  UNL1        0.1437
     12 H         137.8173  139.9272  161.8333 H       1  UNL1        0.1437
     13 C         139.9613  138.7417  162.2612 C.ar    1  UNL1        0.0196
     14 C         139.1465  137.6317  162.8560 C.ar    1  UNL1        0.0031
     15 C         138.8044  137.6519  164.3163 C.ar    1  UNL1        0.0193
     16 C         139.2772  138.7821  165.1818 C.ar    1  UNL1        0.0844
     17 N         138.9351  138.8023  166.6422 N.ar    1  UNL1       -0.2117
     18 C         139.4078  139.9325  167.5077 C.ar    1  UNL1        0.2247
     19 C         140.2227  141.0426  166.9128 C.ar    1  UNL1        0.0577
     20 C         140.5648  141.0224  165.4525 C.ar    1  UNL1        0.0063
     21 C         140.0920  139.8922  164.5870 C.ar    1  UNL1        0.0180
     22 C         140.4341  139.8720  163.1267 C.ar    1  UNL1        0.0031
     23 O         139.0658  139.9527  168.9680 O.3     1  UNL1       -0.4640
     24 C         139.6844  140.9800  169.8691 C.3     1  UNL1        0.1678
     25 C         140.6735  141.3455  170.9358 C.3     1  UNL1        0.0473
     26 C         139.7666  142.3940  170.3630 C.3     1  UNL1        0.0473
     27 C         142.5009  137.8968  157.7095 C.3     1  UNL1        0.1292
     28 C         142.3059  136.6255  156.9377 C.3     1  UNL1        0.0295
     29 C         143.1685  135.4329  157.2266 C.3     1  UNL1        0.0341
     30 C         142.9735  134.1616  156.4548 C.3     1  UNL1        0.1422
     31 O         141.9157  134.0829  155.3941 O.3     1  UNL1       -0.3538
     32 C         141.0531  135.2755  155.1052 C.3     1  UNL1        0.1422
     33 C         141.2481  136.5468  155.8770 C.3     1  UNL1        0.0341
@<TRIPOS>BOND
     1     1     2    1
     2     2     3   ar
     3     3     4   ar
     4     4     5   ar
     5     5     6   ar
     6     6     7   ar
     7     7     8   ar
     8     8    13    1
     9    13    14   ar
    10    14    15   ar
    11    15    16   ar
    12    16    17   ar
    13    17    18   ar
    14    18    23    1
    15    23    24    1
    16    24    25    1
    17    25    26    1
    18    18    19   ar
    19    19    20   ar
    20    20    21   ar
    21    21    22   ar
    22     8     9   ar
    23     9    10   ar
    24    10    27    1
    25    27    28    1
    26    28    29    1
    27    29    30    1
    28    30    31    1
    29    31    32    1
    30    32    33    1
    31     7     2   ar
    32    22    13   ar
    33    33    28    1
    34    10     6   ar
    35    21    16   ar
    36    26    24    1
    37     1    11    1
    38     1    12    1
@<TRIPOS>MOLECULE
*****
 33 38 0 0 0
SMALL
GASTEIGER

@<TRIPOS>ATOM
      1 N         142.1787  139.0006  162.5029 N.pl3   1  UNL1       -0.3425
      2 C         142.2337  139.0530  164.0010 C.ar    1  UNL1        0.1316
      3 N         143.5078  138.7151  164.7169 N.ar    1  UNL1       -0.2093
      4 C         143.5629  138.7675  166.2150 C.ar    1  UNL1        0.2014
      5 N         142.3438  139.1578  166.9971 N.ar    1  UNL1       -0.2050
      6 C         141.0698  139.4956  166.2812 C.ar    1  UNL1        0.1653
      7 C         141.0147  139.4432  164.7831 C.ar    1  UNL1        0.0860
      8 C         139.6288  139.8268  164.3565 C.ar    1  UNL1        0.1065
      9 N         138.8273  140.1163  165.5909 N.ar    1  UNL1       -0.1679
     10 N         139.7179  139.9116  166.7804 N.ar    1  UNL1       -0.2340
     11 H         142.9787  138.7445  161.9896 H       1  UNL1        0.1437
     12 H         141.3424  139.2223  162.0330 H       1  UNL1        0.1437
     13 C         139.1316  139.9069  162.9435 C.ar    1  UNL1        0.0196
     14 C         138.4557  138.7229  162.3180 C.ar    1  UNL1        0.0031
     15 C         137.9586  138.8030  160.9051 C.ar    1  UNL1        0.0193
     16 C         138.1374  140.0671  160.1176 C.ar    1  UNL1        0.0844
     17 N         137.6403  140.1472  158.7046 N.ar    1  UNL1       -0.2117
     18 C         137.8191  141.4113  157.9171 C.ar    1  UNL1        0.2247
     19 C         138.4951  142.5953  158.5427 C.ar    1  UNL1        0.0577
     20 C         138.9922  142.5152  159.9556 C.ar    1  UNL1        0.0063
     21 C         138.8134  141.2511  160.7431 C.ar    1  UNL1        0.0180
     22 C         139.3105  141.1710  162.1560 C.ar    1  UNL1        0.0031
     23 O         137.3220  141.4914  156.5042 O.3     1  UNL1       -0.4640
     24 C         135.8998  141.1341  156.1881 C.3     1  UNL1        0.1678
     25 C         134.6770  141.3018  155.3357 C.3     1  UNL1        0.0473
     26 C         134.6595  140.3476  156.4929 C.3     1  UNL1        0.0473
     27 C         139.3254  140.0913  168.2170 C.3     1  UNL1        0.1292
     28 C         140.1814  140.9174  169.1306 C.3     1  UNL1        0.0295
     29 C         140.3253  142.3917  168.8941 C.3     1  UNL1        0.0341
     30 C         141.1813  143.2178  169.8077 C.3     1  UNL1        0.1422
     31 O         141.8935  142.5696  170.9578 O.3     1  UNL1       -0.3538
     32 C         141.7497  141.0954  171.1943 C.3     1  UNL1        0.1422
     33 C         140.8936  140.2693  170.2807 C.3     1  UNL1        0.0341
@<TRIPOS>BOND
     1     1     2    1
     2     2     3   ar
     3     3     4   ar
     4     4     5   ar
     5     5     6   ar
     6     6     7   ar
     7     7     8   ar
     8     8    13    1
     9    13    14   ar
    10    14    15   ar
    11    15    16   ar
    12    16    17   ar
    13    17    18   ar
    14    18    23    1
    15    23    24    1
    16    24    25    1
    17    25    26    1
    18    18    19   ar
    19    19    20   ar
    20    20    21   ar
    21    21    22   ar
    22     8     9   ar
    23     9    10   ar
    24    10    27    1
    25    27    28    1
    26    28    29    1
    27    29    30    1
    28    30    31    1
    29    31    32    1
    30    32    33    1
    31     7     2   ar
    32    22    13   ar
    33    33    28    1
    34    10     6   ar
    35    21    16   ar
    36    26    24    1
    37     1    11    1
    38     1    12    1
@<TRIPOS>MOLECULE
*****
 33 38 0 0 0
SMALL
GASTEIGER

@<TRIPOS>ATOM
      1 N         138.0613  140.4319  159.9523 N.pl3   1  UNL1       -0.3425
      2 C         138.7259  139.8905  158.7214 C.ar    1  UNL1        0.1316
      3 N         138.1146  140.1289  157.3725 N.ar    1  UNL1       -0.2093
      4 C         138.7791  139.5875  156.1416 C.ar    1  UNL1        0.2014
      5 N         140.0551  138.8075  156.2597 N.ar    1  UNL1       -0.2050
      6 C         140.6663  138.5691  157.6085 C.ar    1  UNL1        0.1653
      7 C         140.0017  139.1106  158.8394 C.ar    1  UNL1        0.0860
      8 C         140.8326  138.7187  160.0252 C.ar    1  UNL1        0.1065
      9 N         142.0106  137.9351  159.5272 N.ar    1  UNL1       -0.1679
     10 N         141.9079  137.8426  158.0336 N.ar    1  UNL1       -0.2340
     11 H         137.2239  140.9438  159.8749 H       1  UNL1        0.1437
     12 H         138.4625  140.2754  160.8376 H       1  UNL1        0.1437
     13 C         140.5371  139.0521  161.4576 C.ar    1  UNL1        0.0196
     14 C         141.0226  140.3453  162.0422 C.ar    1  UNL1        0.0031
     15 C         140.7272  140.6786  163.4746 C.ar    1  UNL1        0.0193
     16 C         139.9463  139.7186  164.3223 C.ar    1  UNL1        0.0844
     17 N         139.6509  140.0519  165.7547 N.ar    1  UNL1       -0.2117
     18 C         138.8700  139.0919  166.6024 C.ar    1  UNL1        0.2247
     19 C         138.3845  137.7986  166.0178 C.ar    1  UNL1        0.0577
     20 C         138.6800  137.4653  164.5854 C.ar    1  UNL1        0.0063
     21 C         139.4608  138.4253  163.7377 C.ar    1  UNL1        0.0180
     22 C         139.7563  138.0921  162.3054 C.ar    1  UNL1        0.0031
     23 O         138.5746  139.4252  168.0348 O.3     1  UNL1       -0.4640
     24 C         139.5775  140.1866  168.8499 C.3     1  UNL1        0.1678
     25 C         140.6767  140.2053  169.8704 C.3     1  UNL1        0.0473
     26 C         140.2154  141.4865  169.2413 C.3     1  UNL1        0.0473
     27 C         142.8767  137.1460  157.1247 C.3     1  UNL1        0.1292
     28 C         142.6341  135.7222  156.7196 C.3     1  UNL1        0.0295
     29 C         141.6282  135.4071  155.6525 C.3     1  UNL1        0.0341
     30 C         141.3856  133.9833  155.2475 C.3     1  UNL1        0.1422
     31 O         142.1490  132.8747  155.9096 O.3     1  UNL1       -0.3538
     32 C         143.1549  133.1899  156.9767 C.3     1  UNL1        0.1422
     33 C         143.3975  134.6136  157.3817 C.3     1  UNL1        0.0341
@<TRIPOS>BOND
     1     1     2    1
     2     2     3   ar
     3     3     4   ar
     4     4     5   ar
     5     5     6   ar
     6     6     7   ar
     7     7     8   ar
     8     8    13    1
     9    13    14   ar
    10    14    15   ar
    11    15    16   ar
    12    16    17   ar
    13    17    18   ar
    14    18    23    1
    15    23    24    1
    16    24    25    1
    17    25    26    1
    18    18    19   ar
    19    19    20   ar
    20    20    21   ar
    21    21    22   ar
    22     8     9   ar
    23     9    10   ar
    24    10    27    1
    25    27    28    1
    26    28    29    1
    27    29    30    1
    28    30    31    1
    29    31    32    1
    30    32    33    1
    31     7     2   ar
    32    22    13   ar
    33    33    28    1
    34    10     6   ar
    35    21    16   ar
    36    26    24    1
    37     1    11    1
    38     1    12    1
@<TRIPOS>MOLECULE
*****
 33 38 0 0 0
SMALL
GASTEIGER

@<TRIPOS>ATOM
      1 N         142.6330  138.7652  166.8687 N.pl3   1  UNL1       -0.3425
      2 C         143.2861  139.6667  165.8633 C.ar    1  UNL1        0.1316
      3 N         144.5274  139.2195  165.1497 N.ar    1  UNL1       -0.2093
      4 C         145.1805  140.1210  164.1444 C.ar    1  UNL1        0.2014
      5 N         144.5922  141.4697  163.8527 N.ar    1  UNL1       -0.2050
      6 C         143.3510  141.9169  164.5662 C.ar    1  UNL1        0.1653
      7 C         142.6979  141.0154  165.5716 C.ar    1  UNL1        0.0860
      8 C         141.4915  141.7229  166.1139 C.ar    1  UNL1        0.1065
      9 N         141.3990  143.0616  165.4438 N.ar    1  UNL1       -0.1679
     10 N         142.5482  143.1815  164.4872 N.ar    1  UNL1       -0.2340
     11 H         143.0191  137.8801  167.0602 H       1  UNL1        0.1437
     12 H         141.8183  139.0587  167.3371 H       1  UNL1        0.1437
     13 C         140.5440  141.1858  167.1454 C.ar    1  UNL1        0.0196
     14 C         140.6059  141.6914  168.5562 C.ar    1  UNL1        0.0031
     15 C         139.6584  141.1543  169.5876 C.ar    1  UNL1        0.0193
     16 C         138.6490  140.1117  169.2081 C.ar    1  UNL1        0.0844
     17 N         137.7015  139.5747  170.2396 N.ar    1  UNL1       -0.2117
     18 C         136.6920  138.5321  169.8602 C.ar    1  UNL1        0.2247
     19 C         136.6301  138.0265  168.4492 C.ar    1  UNL1        0.0577
     20 C         137.5776  138.5635  167.4178 C.ar    1  UNL1        0.0063
     21 C         138.5871  139.6062  167.7973 C.ar    1  UNL1        0.0180
     22 C         139.5346  140.1432  166.7659 C.ar    1  UNL1        0.0031
     23 O         135.7445  137.9950  170.8915 O.3     1  UNL1       -0.4640
     24 C         136.2740  137.2479  172.0797 C.3     1  UNL1        0.1678
     25 C         137.3710  136.9924  173.0703 C.3     1  UNL1        0.0473
     26 C         136.0939  136.2094  173.1469 C.3     1  UNL1        0.0473
     27 C         142.8429  144.3593  163.6063 C.3     1  UNL1        0.1292
     28 C         141.8555  144.7770  162.5573 C.3     1  UNL1        0.0295
     29 C         140.6663  145.6093  162.9357 C.3     1  UNL1        0.0341
     30 C         139.6789  146.0269  161.8866 C.3     1  UNL1        0.1422
     31 O         139.8806  145.6123  160.4592 O.3     1  UNL1       -0.3538
     32 C         141.0698  144.7801  160.0809 C.3     1  UNL1        0.1422
     33 C         142.0572  144.3624  161.1299 C.3     1  UNL1        0.0341
@<TRIPOS>BOND
     1     1     2    1
     2     2     3   ar
     3     3     4   ar
     4     4     5   ar
     5     5     6   ar
     6     6     7   ar
     7     7     8   ar
     8     8    13    1
     9    13    14   ar
    10    14    15   ar
    11    15    16   ar
    12    16    17   ar
    13    17    18   ar
    14    18    23    1
    15    23    24    1
    16    24    25    1
    17    25    26    1
    18    18    19   ar
    19    19    20   ar
    20    20    21   ar
    21    21    22   ar
    22     8     9   ar
    23     9    10   ar
    24    10    27    1
    25    27    28    1
    26    28    29    1
    27    29    30    1
    28    30    31    1
    29    31    32    1
    30    32    33    1
    31     7     2   ar
    32    22    13   ar
    33    33    28    1
    34    10     6   ar
    35    21    16   ar
    36    26    24    1
    37     1    11    1
    38     1    12    1
@<TRIPOS>MOLECULE
*****
 33 38 0 0 0
SMALL
GASTEIGER

@<TRIPOS>ATOM
      1 N         139.6258  142.7229  160.2507 N.pl3   1  UNL1       -0.3425
      2 C         139.2915  143.0115  161.6842 C.ar    1  UNL1        0.1316
      3 N         138.0181  143.7256  162.0284 N.ar    1  UNL1       -0.2093
      4 C         137.6839  144.0141  163.4619 C.ar    1  UNL1        0.2014
      5 N         138.6232  143.5885  164.5513 N.ar    1  UNL1       -0.2050
      6 C         139.8965  142.8745  164.2071 C.ar    1  UNL1        0.1653
      7 C         140.2308  142.5859  162.7736 C.ar    1  UNL1        0.0860
      8 C         141.5490  141.8710  162.7398 C.ar    1  UNL1        0.1065
      9 N         142.0295  141.7177  164.1525 N.ar    1  UNL1       -0.1679
     10 N         141.0083  142.3378  165.0593 N.ar    1  UNL1       -0.2340
     11 H         139.0093  143.0022  159.5357 H       1  UNL1        0.1437
     12 H         140.4616  142.2542  160.0248 H       1  UNL1        0.1437
     13 C         142.2616  141.3932  161.5093 C.ar    1  UNL1        0.0196
     14 C         142.1888  139.9481  161.1139 C.ar    1  UNL1        0.0031
     15 C         142.9014  139.4705  159.8835 C.ar    1  UNL1        0.0193
     16 C         143.6868  140.4379  159.0485 C.ar    1  UNL1        0.0844
     17 N         144.3994  139.9601  157.8180 N.ar    1  UNL1       -0.2117
     18 C         145.1848  140.9275  156.9829 C.ar    1  UNL1        0.2247
     19 C         145.2576  142.3727  157.3784 C.ar    1  UNL1        0.0577
     20 C         144.5450  142.8504  158.6088 C.ar    1  UNL1        0.0063
     21 C         143.7596  141.8830  159.4439 C.ar    1  UNL1        0.0180
     22 C         143.0470  142.3606  160.6743 C.ar    1  UNL1        0.0031
     23 O         145.8974  140.4499  155.7525 O.3     1  UNL1       -0.4640
     24 C         147.0490  141.2362  155.1999 C.3     1  UNL1        0.1678
     25 C         148.4612  141.7282  155.3168 C.3     1  UNL1        0.0473
     26 C         147.6315  142.1062  154.1257 C.3     1  UNL1        0.0473
     27 C         141.0852  142.4089  166.5557 C.3     1  UNL1        0.1292
     28 C         140.2741  141.4659  167.3940 C.3     1  UNL1        0.0295
     29 C         139.5193  140.3444  166.7441 C.3     1  UNL1        0.0341
     30 C         138.7082  139.4014  167.5824 C.3     1  UNL1        0.1422
     31 O         138.6520  139.5799  169.0707 O.3     1  UNL1       -0.3538
     32 C         139.4068  140.7013  169.7207 C.3     1  UNL1        0.1422
     33 C         140.2179  141.6444  168.8823 C.3     1  UNL1        0.0341
@<TRIPOS>BOND
     1     1     2    1
     2     2     3   ar
     3     3     4   ar
     4     4     5   ar
     5     5     6   ar
     6     6     7   ar
     7     7     8   ar
     8     8    13    1
     9    13    14   ar
    10    14    15   ar
    11    15    16   ar
    12    16    17   ar
    13    17    18   ar
    14    18    23    1
    15    23    24    1
    16    24    25    1
    17    25    26    1
    18    18    19   ar
    19    19    20   ar
    20    20    21   ar
    21    21    22   ar
    22     8     9   ar
    23     9    10   ar
    24    10    27    1
    25    27    28    1
    26    28    29    1
    27    29    30    1
    28    30    31    1
    29    31    32    1
    30    32    33    1
    31     7     2   ar
    32    22    13   ar
    33    33    28    1
    34    10     6   ar
    35    21    16   ar
    36    26    24    1
    37     1    11    1
    38     1    12    1
@<TRIPOS>MOLECULE
*****
 33 38 0 0 0
SMALL
GASTEIGER

@<TRIPOS>ATOM
      1 N         142.0002  145.2164  161.1279 N.pl3   1  UNL1       -0.3425
      2 C         141.4672  144.9392  159.7535 C.ar    1  UNL1        0.1316
      3 N         142.1636  145.5040  158.5510 N.ar    1  UNL1       -0.2093
      4 C         141.6307  145.2269  157.1765 C.ar    1  UNL1        0.2014
      5 N         140.4011  144.3849  157.0047 N.ar    1  UNL1       -0.2050
      6 C         139.7047  143.8201  158.2071 C.ar    1  UNL1        0.1653
      7 C         140.2377  144.0973  159.5815 C.ar    1  UNL1        0.0860
      8 C         139.3450  143.4105  160.5721 C.ar    1  UNL1        0.1065
      9 N         138.2602  142.7089  159.8099 N.ar    1  UNL1       -0.1679
     10 N         138.4825  142.9620  158.3483 N.ar    1  UNL1       -0.2340
     11 H         142.8071  145.7690  161.2407 H       1  UNL1        0.1437
     12 H         141.5431  144.8457  161.9171 H       1  UNL1        0.1437
     13 C         139.5083  143.4232  162.0632 C.ar    1  UNL1        0.0196
     14 C         138.8203  144.4732  162.8842 C.ar    1  UNL1        0.0031
     15 C         138.9837  144.4858  164.3752 C.ar    1  UNL1        0.0193
     16 C         139.8351  143.4484  165.0452 C.ar    1  UNL1        0.0844
     17 N         139.9985  143.4611  166.5363 N.ar    1  UNL1       -0.2117
     18 C         140.8498  142.4237  167.2063 C.ar    1  UNL1        0.2247
     19 C         141.5379  141.3736  166.3852 C.ar    1  UNL1        0.0577
     20 C         141.3745  141.3610  164.8942 C.ar    1  UNL1        0.0063
     21 C         140.5231  142.3984  164.2242 C.ar    1  UNL1        0.0180
     22 C         140.3597  142.3858  162.7332 C.ar    1  UNL1        0.0031
     23 O         141.0132  142.4363  168.6973 O.3     1  UNL1       -0.4640
     24 C         142.3171  142.0219  169.3125 C.3     1  UNL1        0.1678
     25 C         143.7411  142.3297  169.6692 C.3     1  UNL1        0.0473
     26 C         143.1512  140.9963  170.0212 C.3     1  UNL1        0.0473
     27 C         137.6319  142.4475  157.2250 C.3     1  UNL1        0.1292
     28 C         137.9144  141.1015  156.6261 C.3     1  UNL1        0.0295
     29 C         138.9966  140.2368  157.2017 C.3     1  UNL1        0.0341
     30 C         139.2791  138.8909  156.6028 C.3     1  UNL1        0.1422
     31 O         138.4794  138.4097  155.4285 O.3     1  UNL1       -0.3538
     32 C         137.3973  139.2744  154.8530 C.3     1  UNL1        0.1422
     33 C         137.1148  140.6203  155.4518 C.3     1  UNL1        0.0341
@<TRIPOS>BOND
     1     1     2    1
     2     2     3   ar
     3     3     4   ar
     4     4     5   ar
     5     5     6   ar
     6     6     7   ar
     7     7     8   ar
     8     8    13    1
     9    13    14   ar
    10    14    15   ar
    11    15    16   ar
    12    16    17   ar
    13    17    18   ar
    14    18    23    1
    15    23    24    1
    16    24    25    1
    17    25    26    1
    18    18    19   ar
    19    19    20   ar
    20    20    21   ar
    21    21    22   ar
    22     8     9   ar
    23     9    10   ar
    24    10    27    1
    25    27    28    1
    26    28    29    1
    27    29    30    1
    28    30    31    1
    29    31    32    1
    30    32    33    1
    31     7     2   ar
    32    22    13   ar
    33    33    28    1
    34    10     6   ar
    35    21    16   ar
    36    26    24    1
    37     1    11    1
    38     1    12    1
