@<TRIPOS>MOLECULE
*****
 23 26 0 0 0
SMALL
GASTEIGER

@<TRIPOS>ATOM
      1 O         138.9201  144.8852  164.0154 O.2     1  UNL1       -0.2666
      2 C         140.0566  144.1872  163.3288 C.2     1  UNL1        0.2837
      3 C         140.3605  144.4850  161.8904 C.ar    1  UNL1        0.1985
      4 N         139.7191  145.4109  160.8999 N.ar    1  UNL1       -0.2226
      5 C         140.4591  145.2852  159.6012 C.ar    1  UNL1        0.0993
      6 C         140.2743  145.9550  158.2718 C.ar    1  UNL1        0.0207
      7 C         141.1884  145.6211  157.1304 C.ar    1  UNL1        0.0021
      8 C         142.2872  144.6174  157.3183 C.ar    1  UNL1        0.0082
      9 C         142.4719  143.9477  158.6476 C.ar    1  UNL1        0.0518
     10 BR        143.5707  142.9440  158.8355 Br      1  UNL1       -0.0474
     11 C         141.5579  144.2816  159.7891 C.ar    1  UNL1        0.0853
     12 N         141.4969  143.7870  161.2039 N.ar    1  UNL1       -0.3056
     13 C         142.3294  142.7912  161.9558 C.3     1  UNL1        0.1291
     14 C         142.0255  142.4935  163.3942 C.3     1  UNL1        0.1186
     15 N         140.8891  143.1914  164.0807 N.am    1  UNL1       -0.2675
     16 C         140.5852  142.8937  165.5191 C.3     1  UNL1        0.1206
     17 C         139.8222  141.6547  165.8835 C.ar    1  UNL1       -0.0023
     18 C         140.0156  141.0239  167.2306 C.ar    1  UNL1       -0.0017
     19 C         139.2526  139.7848  167.5951 C.ar    1  UNL1        0.0111
     20 C         138.2962  139.1767  166.6125 C.ar    1  UNL1        0.0577
     21 CL        137.5332  137.9378  166.9769 Cl      1  UNL1       -0.0822
     22 C         138.1028  139.8076  165.2653 C.ar    1  UNL1        0.0111
     23 C         138.8658  141.0466  164.9009 C.ar    1  UNL1       -0.0017
@<TRIPOS>BOND
     1     1     2    2
     2     2     3    1
     3     3     4   ar
     4     4     5   ar
     5     5     6   ar
     6     6     7   ar
     7     7     8   ar
     8     8     9   ar
     9     9    10    1
    10     9    11   ar
    11    11    12   ar
    12    12    13    1
    13    13    14    1
    14    14    15    1
    15    15    16    1
    16    16    17    1
    17    17    18   ar
    18    18    19   ar
    19    19    20   ar
    20    20    21    1
    21    20    22   ar
    22    22    23   ar
    23    15     2   am
    24    23    17   ar
    25    12     3   ar
    26    11     5   ar
@<TRIPOS>MOLECULE
*****
 23 26 0 0 0
SMALL
GASTEIGER

@<TRIPOS>ATOM
      1 O         137.4827  138.2112  166.6473 O.2     1  UNL1       -0.2666
      2 C         138.7172  138.9913  166.3046 C.2     1  UNL1        0.2837
      3 C         139.4538  139.7387  167.3764 C.ar    1  UNL1        0.1985
      4 N         139.2035  139.8901  168.8476 N.ar    1  UNL1       -0.2226
      5 C         140.2833  140.7637  169.4141 C.ar    1  UNL1        0.0993
      6 C         140.5494  141.2556  170.8059 C.ar    1  UNL1        0.0207
      7 C         141.7332  142.1361  171.0766 C.ar    1  UNL1        0.0021
      8 C         142.6509  142.5247  169.9554 C.ar    1  UNL1        0.0082
      9 C         142.3847  142.0328  168.5636 C.ar    1  UNL1        0.0518
     10 BR        143.3024  142.4214  167.4425 Br      1  UNL1       -0.0474
     11 C         141.2009  141.1523  168.2929 C.ar    1  UNL1        0.0853
     12 N         140.6883  140.5188  167.0336 N.ar    1  UNL1       -0.3056
     13 C         141.1861  140.5515  165.6190 C.3     1  UNL1        0.1291
     14 C         140.4495  139.8041  164.5472 C.3     1  UNL1        0.1186
     15 N         139.2150  139.0240  164.8900 N.am    1  UNL1       -0.2675
     16 C         138.4784  138.2766  163.8182 C.3     1  UNL1        0.1206
     17 C         138.5594  138.7359  162.3926 C.ar    1  UNL1       -0.0023
     18 C         139.4693  138.0335  161.4289 C.ar    1  UNL1       -0.0017
     19 C         139.5503  138.4928  160.0031 C.ar    1  UNL1        0.0111
     20 C         138.7215  139.6546  159.5412 C.ar    1  UNL1        0.0577
     21 CL        138.8025  140.1139  158.1156 Cl      1  UNL1       -0.0822
     22 C         137.8116  140.3570  160.5050 C.ar    1  UNL1        0.0111
     23 C         137.7306  139.8977  161.9306 C.ar    1  UNL1       -0.0017
@<TRIPOS>BOND
     1     1     2    2
     2     2     3    1
     3     3     4   ar
     4     4     5   ar
     5     5     6   ar
     6     6     7   ar
     7     7     8   ar
     8     8     9   ar
     9     9    10    1
    10     9    11   ar
    11    11    12   ar
    12    12    13    1
    13    13    14    1
    14    14    15    1
    15    15    16    1
    16    16    17    1
    17    17    18   ar
    18    18    19   ar
    19    19    20   ar
    20    20    21    1
    21    20    22   ar
    22    22    23   ar
    23    15     2   am
    24    23    17   ar
    25    12     3   ar
    26    11     5   ar
@<TRIPOS>MOLECULE
*****
 23 26 0 0 0
SMALL
GASTEIGER

@<TRIPOS>ATOM
      1 O         142.0353  139.0677  163.6234 O.2     1  UNL1       -0.2666
      2 C         141.0614  139.1681  164.7598 C.2     1  UNL1        0.2837
      3 C         141.4123  139.9669  165.9800 C.ar    1  UNL1        0.1985
      4 N         142.6335  140.7579  166.3449 N.ar    1  UNL1       -0.2226
      5 C         142.4143  141.3471  167.7068 C.ar    1  UNL1        0.0993
      6 C         143.2747  142.2172  168.5743 C.ar    1  UNL1        0.0207
      7 C         142.7785  142.6604  169.9186 C.ar    1  UNL1        0.0021
      8 C         141.4218  142.2336  170.3955 C.ar    1  UNL1        0.0082
      9 C         140.5614  141.3636  169.5280 C.ar    1  UNL1        0.0518
     10 BR        139.2048  140.9367  170.0048 Br      1  UNL1       -0.0474
     11 C         141.0576  140.9203  168.1836 C.ar    1  UNL1        0.0853
     12 N         140.4384  140.0673  167.1164 N.ar    1  UNL1       -0.3056
     13 C         139.1136  139.3690  167.0326 C.3     1  UNL1        0.1291
     14 C         138.7626  138.5702  165.8124 C.3     1  UNL1        0.1186
     15 N         139.7365  138.4698  164.6760 N.am    1  UNL1       -0.2675
     16 C         139.3856  137.6711  163.4558 C.3     1  UNL1        0.1206
     17 C         139.0569  138.3708  162.1704 C.ar    1  UNL1       -0.0023
     18 C         137.8597  139.2711  162.0914 C.ar    1  UNL1       -0.0017
     19 C         137.5310  139.9708  160.8059 C.ar    1  UNL1        0.0111
     20 C         138.3994  139.7702  159.5994 C.ar    1  UNL1        0.0577
     21 CL        138.0707  140.4699  158.3140 Cl      1  UNL1       -0.0822
     22 C         139.5966  138.8698  159.6784 C.ar    1  UNL1        0.0111
     23 C         139.9253  138.1701  160.9639 C.ar    1  UNL1       -0.0017
@<TRIPOS>BOND
     1     1     2    2
     2     2     3    1
     3     3     4   ar
     4     4     5   ar
     5     5     6   ar
     6     6     7   ar
     7     7     8   ar
     8     8     9   ar
     9     9    10    1
    10     9    11   ar
    11    11    12   ar
    12    12    13    1
    13    13    14    1
    14    14    15    1
    15    15    16    1
    16    16    17    1
    17    17    18   ar
    18    18    19   ar
    19    19    20   ar
    20    20    21    1
    21    20    22   ar
    22    22    23   ar
    23    15     2   am
    24    23    17   ar
    25    12     3   ar
    26    11     5   ar
@<TRIPOS>MOLECULE
*****
 23 26 0 0 0
SMALL
GASTEIGER

@<TRIPOS>ATOM
      1 O         138.1885  143.1813  161.0473 O.2     1  UNL1       -0.2666
      2 C         139.0400  143.4160  162.2596 C.2     1  UNL1        0.2837
      3 C         138.9713  142.4672  163.4195 C.ar    1  UNL1        0.1985
      4 N         138.1653  141.2240  163.6529 N.ar    1  UNL1       -0.2226
      5 C         138.5186  140.6903  165.0095 C.ar    1  UNL1        0.0993
      6 C         138.0398  139.4905  165.7720 C.ar    1  UNL1        0.0207
      7 C         138.5855  139.2043  167.1395 C.ar    1  UNL1        0.0021
      8 C         139.6100  140.1177  167.7446 C.ar    1  UNL1        0.0082
      9 C         140.0888  141.3175  166.9821 C.ar    1  UNL1        0.0518
     10 BR        141.1132  142.2309  167.5871 Br      1  UNL1       -0.0474
     11 C         139.5431  141.6037  165.6145 C.ar    1  UNL1        0.0853
     12 N         139.8229  142.7019  164.6319 N.ar    1  UNL1       -0.3056
     13 C         140.7430  143.8854  164.6844 C.3     1  UNL1        0.1291
     14 C         140.8117  144.8341  163.5245 C.3     1  UNL1        0.1186
     15 N         139.9602  144.5994  162.3122 N.am    1  UNL1       -0.2675
     16 C         140.0288  145.5482  161.1523 C.3     1  UNL1        0.1206
     17 C         140.7292  145.1403  159.8902 C.ar    1  UNL1       -0.0023
     18 C         141.8615  144.1580  159.9447 C.ar    1  UNL1       -0.0017
     19 C         142.5620  143.7501  158.6825 C.ar    1  UNL1        0.0111
     20 C         142.1301  144.3245  157.3658 C.ar    1  UNL1        0.0577
     21 CL        142.8305  143.9166  156.1037 Cl      1  UNL1       -0.0822
     22 C         140.9977  145.3068  157.3114 C.ar    1  UNL1        0.0111
     23 C         140.2973  145.7147  158.5735 C.ar    1  UNL1       -0.0017
@<TRIPOS>BOND
     1     1     2    2
     2     2     3    1
     3     3     4   ar
     4     4     5   ar
     5     5     6   ar
     6     6     7   ar
     7     7     8   ar
     8     8     9   ar
     9     9    10    1
    10     9    11   ar
    11    11    12   ar
    12    12    13    1
    13    13    14    1
    14    14    15    1
    15    15    16    1
    16    16    17    1
    17    17    18   ar
    18    18    19   ar
    19    19    20   ar
    20    20    21    1
    21    20    22   ar
    22    22    23   ar
    23    15     2   am
    24    23    17   ar
    25    12     3   ar
    26    11     5   ar
@<TRIPOS>MOLECULE
*****
 23 26 0 0 0
SMALL
GASTEIGER

@<TRIPOS>ATOM
      1 O         141.7788  138.0022  165.4789 O.2     1  UNL1       -0.2666
      2 C         140.7818  138.5203  164.4852 C.2     1  UNL1        0.2837
      3 C         141.0978  138.4882  163.0192 C.ar    1  UNL1        0.1985
      4 N         142.3004  138.0083  162.2619 N.ar    1  UNL1       -0.2226
      5 C         142.0466  138.2298  160.8002 C.ar    1  UNL1        0.0993
      6 C         142.8778  137.9495  159.5835 C.ar    1  UNL1        0.0207
      7 C         142.3494  138.2861  158.2205 C.ar    1  UNL1        0.0021
      8 C         140.9900  138.9029  158.0744 C.ar    1  UNL1        0.0082
      9 C         140.1588  139.1832  159.2912 C.ar    1  UNL1        0.0518
     10 BR        138.7993  139.8000  159.1451 Br      1  UNL1       -0.0474
     11 C         140.6871  138.8466  160.6541 C.ar    1  UNL1        0.0853
     12 N         140.1007  139.0063  162.0255 N.ar    1  UNL1       -0.3056
     13 C         138.7877  139.5566  162.4978 C.3     1  UNL1        0.1291
     14 C         138.4717  139.5887  163.9638 C.3     1  UNL1        0.1186
     15 N         139.4687  139.0706  164.9575 N.am    1  UNL1       -0.2675
     16 C         139.1527  139.1028  166.4235 C.3     1  UNL1        0.1206
     17 C         139.5742  140.2772  167.2560 C.ar    1  UNL1       -0.0023
     18 C         140.1391  141.5001  166.5961 C.ar    1  UNL1       -0.0017
     19 C         140.5606  142.6746  167.4286 C.ar    1  UNL1        0.0111
     20 C         140.4172  142.6261  168.9210 C.ar    1  UNL1        0.0577
     21 CL        140.8387  143.8005  169.7535 Cl      1  UNL1       -0.0822
     22 C         139.8523  141.4031  169.5808 C.ar    1  UNL1        0.0111
     23 C         139.4308  140.2287  168.7483 C.ar    1  UNL1       -0.0017
@<TRIPOS>BOND
     1     1     2    2
     2     2     3    1
     3     3     4   ar
     4     4     5   ar
     5     5     6   ar
     6     6     7   ar
     7     7     8   ar
     8     8     9   ar
     9     9    10    1
    10     9    11   ar
    11    11    12   ar
    12    12    13    1
    13    13    14    1
    14    14    15    1
    15    15    16    1
    16    16    17    1
    17    17    18   ar
    18    18    19   ar
    19    19    20   ar
    20    20    21    1
    21    20    22   ar
    22    22    23   ar
    23    15     2   am
    24    23    17   ar
    25    12     3   ar
    26    11     5   ar
@<TRIPOS>MOLECULE
*****
 23 26 0 0 0
SMALL
GASTEIGER

@<TRIPOS>ATOM
      1 O         144.9008  143.7053  165.6011 O.2     1  UNL1       -0.2666
      2 C         143.6620  142.8614  165.5462 C.2     1  UNL1        0.2837
      3 C         143.0289  142.3750  166.8161 C.ar    1  UNL1        0.1985
      4 N         143.3967  142.5649  168.2578 N.ar    1  UNL1       -0.2226
      5 C         142.3852  141.8384  169.0939 C.ar    1  UNL1        0.0993
      6 C         142.2401  141.6762  170.5780 C.ar    1  UNL1        0.0207
      7 C         141.1019  140.8750  171.1371 C.ar    1  UNL1        0.0021
      8 C         140.1089  140.2360  170.2121 C.ar    1  UNL1        0.0082
      9 C         140.2540  140.3983  168.7280 C.ar    1  UNL1        0.0518
     10 BR        139.2610  139.7593  167.8030 Br      1  UNL1       -0.0474
     11 C         141.3922  141.1995  168.1689 C.ar    1  UNL1        0.0853
     12 N         141.7900  141.5311  166.7611 N.ar    1  UNL1       -0.3056
     13 C         141.1842  141.1737  165.4363 C.3     1  UNL1        0.1291
     14 C         141.8173  141.6601  164.1664 C.3     1  UNL1        0.1186
     15 N         143.0562  142.5040  164.2213 N.am    1  UNL1       -0.2675
     16 C         143.6892  142.9904  162.9514 C.3     1  UNL1        0.1206
     17 C         142.8421  143.6138  161.8820 C.ar    1  UNL1       -0.0023
     18 C         143.0194  143.2031  160.4503 C.ar    1  UNL1       -0.0017
     19 C         142.1722  143.8265  159.3808 C.ar    1  UNL1        0.0111
     20 C         141.1478  144.8606  159.7431 C.ar    1  UNL1        0.0577
     21 CL        140.3007  145.4840  158.6736 Cl      1  UNL1       -0.0822
     22 C         140.9706  145.2713  161.1749 C.ar    1  UNL1        0.0111
     23 C         141.8177  144.6479  162.2443 C.ar    1  UNL1       -0.0017
@<TRIPOS>BOND
     1     1     2    2
     2     2     3    1
     3     3     4   ar
     4     4     5   ar
     5     5     6   ar
     6     6     7   ar
     7     7     8   ar
     8     8     9   ar
     9     9    10    1
    10     9    11   ar
    11    11    12   ar
    12    12    13    1
    13    13    14    1
    14    14    15    1
    15    15    16    1
    16    16    17    1
    17    17    18   ar
    18    18    19   ar
    19    19    20   ar
    20    20    21    1
    21    20    22   ar
    22    22    23   ar
    23    15     2   am
    24    23    17   ar
    25    12     3   ar
    26    11     5   ar
@<TRIPOS>MOLECULE
*****
 23 26 0 0 0
SMALL
GASTEIGER

@<TRIPOS>ATOM
      1 O         137.2989  142.6331  162.6405 O.2     1  UNL1       -0.2666
      2 C         138.5638  142.0428  162.0913 C.2     1  UNL1        0.2837
      3 C         139.3631  142.7984  161.0713 C.ar    1  UNL1        0.1985
      4 N         139.1554  144.1347  160.4225 N.ar    1  UNL1       -0.2226
      5 C         140.2919  144.3703  159.4723 C.ar    1  UNL1        0.0993
      6 C         140.6157  145.5152  158.5589 C.ar    1  UNL1        0.0207
      7 C         141.8495  145.4694  157.7072 C.ar    1  UNL1        0.0021
      8 C         142.7596  144.2787  157.7689 C.ar    1  UNL1        0.0082
      9 C         142.4359  143.1337  158.6822 C.ar    1  UNL1        0.0518
     10 BR        143.3460  141.9430  158.7439 Br      1  UNL1       -0.0474
     11 C         141.2020  143.1795  159.5339 C.ar    1  UNL1        0.0853
     12 N         140.6280  142.2081  160.5222 N.ar    1  UNL1       -0.3056
     13 C         141.0936  140.8622  160.9930 C.3     1  UNL1        0.1291
     14 C         140.2943  140.1066  162.0130 C.3     1  UNL1        0.1186
     15 N         139.0295  140.6969  162.5621 N.am    1  UNL1       -0.2675
     16 C         138.2302  139.9413  163.5821 C.3     1  UNL1        0.1206
     17 C         138.6148  140.0009  165.0307 C.ar    1  UNL1       -0.0023
     18 C         138.0209  139.0273  166.0050 C.ar    1  UNL1       -0.0017
     19 C         138.4056  139.0869  167.4537 C.ar    1  UNL1        0.0111
     20 C         139.3842  140.1201  167.9280 C.ar    1  UNL1        0.0577
     21 CL        139.7688  140.1798  169.3766 Cl      1  UNL1       -0.0822
     22 C         139.9781  141.0938  166.9535 C.ar    1  UNL1        0.0111
     23 C         139.5934  141.0341  165.5049 C.ar    1  UNL1       -0.0017
@<TRIPOS>BOND
     1     1     2    2
     2     2     3    1
     3     3     4   ar
     4     4     5   ar
     5     5     6   ar
     6     6     7   ar
     7     7     8   ar
     8     8     9   ar
     9     9    10    1
    10     9    11   ar
    11    11    12   ar
    12    12    13    1
    13    13    14    1
    14    14    15    1
    15    15    16    1
    16    16    17    1
    17    17    18   ar
    18    18    19   ar
    19    19    20   ar
    20    20    21    1
    21    20    22   ar
    22    22    23   ar
    23    15     2   am
    24    23    17   ar
    25    12     3   ar
    26    11     5   ar
@<TRIPOS>MOLECULE
*****
 23 26 0 0 0
SMALL
GASTEIGER

@<TRIPOS>ATOM
      1 O         138.6401  138.8986  163.5321 O.2     1  UNL1       -0.2666
      2 C         138.9947  140.3411  163.7407 C.2     1  UNL1        0.2837
      3 C         139.2063  141.2399  162.5586 C.ar    1  UNL1        0.1985
      4 N         139.1345  140.9892  161.0814 N.ar    1  UNL1       -0.2226
      5 C         139.4447  142.2768  160.3771 C.ar    1  UNL1        0.0993
      6 C         139.5212  142.6315  158.9216 C.ar    1  UNL1        0.0207
      7 C         139.8612  144.0326  158.5081 C.ar    1  UNL1        0.0021
      8 C         140.1247  145.0791  159.5499 C.ar    1  UNL1        0.0082
      9 C         140.0482  144.7244  161.0053 C.ar    1  UNL1        0.0518
     10 BR        140.3117  145.7709  162.0472 Br      1  UNL1       -0.0474
     11 C         139.7082  143.3232  161.4189 C.ar    1  UNL1        0.0853
     12 N         139.5609  142.6824  162.7671 N.ar    1  UNL1       -0.3056
     13 C         139.7038  143.2261  164.1578 C.3     1  UNL1        0.1291
     14 C         139.4921  142.3273  165.3399 C.3     1  UNL1        0.1186
     15 N         139.1376  140.8848  165.1313 N.am    1  UNL1       -0.2675
     16 C         138.9259  139.9859  166.3134 C.3     1  UNL1        0.1206
     17 C         139.9307  139.9621  167.4269 C.ar    1  UNL1       -0.0023
     18 C         139.4881  140.1924  168.8415 C.ar    1  UNL1       -0.0017
     19 C         140.4929  140.1685  169.9551 C.ar    1  UNL1        0.0111
     20 C         141.9403  139.9144  169.6539 C.ar    1  UNL1        0.0577
     21 CL        142.9450  139.8906  170.7674 Cl      1  UNL1       -0.0822
     22 C         142.3828  139.6842  168.2392 C.ar    1  UNL1        0.0111
     23 C         141.3781  139.7080  167.1258 C.ar    1  UNL1       -0.0017
@<TRIPOS>BOND
     1     1     2    2
     2     2     3    1
     3     3     4   ar
     4     4     5   ar
     5     5     6   ar
     6     6     7   ar
     7     7     8   ar
     8     8     9   ar
     9     9    10    1
    10     9    11   ar
    11    11    12   ar
    12    12    13    1
    13    13    14    1
    14    14    15    1
    15    15    16    1
    16    16    17    1
    17    17    18   ar
    18    18    19   ar
    19    19    20   ar
    20    20    21    1
    21    20    22   ar
    22    22    23   ar
    23    15     2   am
    24    23    17   ar
    25    12     3   ar
    26    11     5   ar
@<TRIPOS>MOLECULE
*****
 23 26 0 0 0
SMALL
GASTEIGER

@<TRIPOS>ATOM
      1 O         143.1183  141.8752  163.7629 O.2     1  UNL1       -0.2666
      2 C         143.0758  140.9365  164.9321 C.2     1  UNL1        0.2837
      3 C         142.3825  141.3458  166.1977 C.ar    1  UNL1        0.1985
      4 N         141.6575  142.6008  166.5843 N.ar    1  UNL1       -0.2226
      5 C         141.1670  142.4378  167.9924 C.ar    1  UNL1        0.0993
      6 C         140.3907  143.3487  168.8967 C.ar    1  UNL1        0.0207
      7 C         140.0363  142.9038  170.2846 C.ar    1  UNL1        0.0021
      8 C         140.4580  141.5480  170.7683 C.ar    1  UNL1        0.0082
      9 C         141.2342  140.6371  169.8641 C.ar    1  UNL1        0.0518
     10 BR        141.6560  139.2813  170.3478 Br      1  UNL1       -0.0474
     11 C         141.5887  141.0820  168.4761 C.ar    1  UNL1        0.0853
     12 N         142.3399  140.4071  167.3669 N.ar    1  UNL1       -0.3056
     13 C         142.9907  139.0592  167.2705 C.3     1  UNL1        0.1291
     14 C         143.6841  138.6498  166.0049 C.3     1  UNL1        0.1186
     15 N         143.7266  139.5885  164.8357 N.am    1  UNL1       -0.2675
     16 C         144.4200  139.1792  163.5701 C.3     1  UNL1        0.1206
     17 C         143.6251  138.9573  162.3175 C.ar    1  UNL1       -0.0023
     18 C         142.3207  138.2192  162.3779 C.ar    1  UNL1       -0.0017
     19 C         141.5258  137.9973  161.1253 C.ar    1  UNL1        0.0111
     20 C         142.0354  138.5135  159.8123 C.ar    1  UNL1        0.0577
     21 CL        141.2406  138.2916  158.5597 Cl      1  UNL1       -0.0822
     22 C         143.3399  139.2517  159.7520 C.ar    1  UNL1        0.0111
     23 C         144.1347  139.4735  161.0046 C.ar    1  UNL1       -0.0017
@<TRIPOS>BOND
     1     1     2    2
     2     2     3    1
     3     3     4   ar
     4     4     5   ar
     5     5     6   ar
     6     6     7   ar
     7     7     8   ar
     8     8     9   ar
     9     9    10    1
    10     9    11   ar
    11    11    12   ar
    12    12    13    1
    13    13    14    1
    14    14    15    1
    15    15    16    1
    16    16    17    1
    17    17    18   ar
    18    18    19   ar
    19    19    20   ar
    20    20    21    1
    21    20    22   ar
    22    22    23   ar
    23    15     2   am
    24    23    17   ar
    25    12     3   ar
    26    11     5   ar
