@<TRIPOS>MOLECULE
*****
 41 44 0 0 0
SMALL
GASTEIGER

@<TRIPOS>ATOM
      1 C         140.1177  143.8774  158.5884 C.3     1  UNL1        0.0317
      2 C         140.5467  143.7925  160.0232 C.ar    1  UNL1       -0.0141
      3 C         140.3513  144.9673  160.9352 C.ar    1  UNL1       -0.0024
      4 C         140.7801  144.8826  162.3700 C.ar    1  UNL1        0.0144
      5 C         141.4045  143.6229  162.8930 C.ar    1  UNL1        0.0511
      6 C         141.5998  142.4480  161.9811 C.ar    1  UNL1        0.0226
      7 C         141.1709  142.5329  160.5462 C.ar    1  UNL1        0.0393
      8 N         141.8334  143.5380  164.3279 N.am    1  UNL1       -0.2804
      9 C         141.0322  142.7279  165.3035 C.2     1  UNL1        0.2495
     10 O         139.8021  142.0027  164.8442 O.2     1  UNL1       -0.2698
     11 H         142.6407  144.0140  164.6293 H       1  UNL1        0.1552
     12 C         141.4611  142.6431  166.7383 C.ar    1  UNL1        0.0536
     13 C         142.8644  142.2376  167.0790 C.ar    1  UNL1        0.0045
     14 C         143.2934  142.1527  168.5138 C.ar    1  UNL1        0.0001
     15 C         142.3188  142.4734  169.6081 C.ar    1  UNL1        0.0039
     16 C         140.9154  142.8789  169.2676 C.ar    1  UNL1        0.0716
     17 C         140.4866  142.9637  167.8327 C.ar    1  UNL1        0.0084
     18 C         139.9409  143.1995  170.3618 C.3     1  UNL1        0.4186
     19 F         138.9663  143.5201  171.4560 F       1  UNL1       -0.1659
     20 F         139.7135  141.7343  170.5887 F       1  UNL1       -0.1659
     21 F         140.1682  144.6648  170.1350 F       1  UNL1       -0.1659
     22 C         141.3663  141.3581  159.6343 C.1     1  UNL1       -0.0585
     23 C         141.5617  140.1833  158.7223 C.1     1  UNL1       -0.0386
     24 C         141.7571  139.0084  157.8103 C.ar    1  UNL1        0.1481
     25 N         143.0184  138.2111  157.6575 N.ar    1  UNL1       -0.1595
     26 N         142.7662  137.1346  156.6438 N.ar    1  UNL1       -0.2333
     27 C         141.3491  137.2666  156.1702 C.ar    1  UNL1        0.1659
     28 N         140.5461  136.4819  155.1756 N.ar    1  UNL1       -0.2050
     29 C         139.1193  136.8553  154.9019 C.ar    1  UNL1        0.2014
     30 N         138.4956  138.0134  155.6229 N.ar    1  UNL1       -0.2093
     31 C         139.2987  138.7981  156.6175 C.ar    1  UNL1        0.1322
     32 N         138.6750  139.9562  157.3384 N.pl3   1  UNL1       -0.3424
     33 C         140.7254  138.4247  156.8911 C.ar    1  UNL1        0.0938
     34 H         137.7385  140.2013  157.1588 H       1  UNL1        0.1437
     35 H         139.2020  140.4713  157.9912 H       1  UNL1        0.1437
     36 C         143.7572  136.1066  156.1844 C.3     1  UNL1        0.1316
     37 C         143.4196  134.6476  156.2720 C.3     1  UNL1        0.0538
     38 C         143.0248  133.8937  155.0367 C.3     1  UNL1        0.0046
     39 C         143.4767  133.9426  157.5947 C.3     1  UNL1        0.1391
     40 O         142.9695  132.5364  157.7177 O.3     1  UNL1       -0.3819
     41 H         142.0111  132.5241  157.5685 H       1  UNL1        0.2104
@<TRIPOS>BOND
     1     1     2    1
     2     2     3   ar
     3     3     4   ar
     4     4     5   ar
     5     5     8    1
     6     8     9   am
     7     9    10    2
     8     9    12    1
     9    12    13   ar
    10    13    14   ar
    11    14    15   ar
    12    15    16   ar
    13    16    18    1
    14    18    19    1
    15    18    20    1
    16    18    21    1
    17    16    17   ar
    18     5     6   ar
    19     6     7   ar
    20     7    22    1
    21    22    23    3
    22    23    24    1
    23    24    25   ar
    24    25    26   ar
    25    26    36    1
    26    36    37    1
    27    37    38    1
    28    37    39    1
    29    39    40    1
    30    26    27   ar
    31    27    28   ar
    32    28    29   ar
    33    29    30   ar
    34    30    31   ar
    35    31    32    1
    36    31    33   ar
    37     7     2   ar
    38    33    24   ar
    39    17    12   ar
    40    33    27   ar
    41     8    11    1
    42    40    41    1
    43    32    34    1
    44    32    35    1
@<TRIPOS>MOLECULE
*****
 41 44 0 0 0
SMALL
GASTEIGER

@<TRIPOS>ATOM
      1 C         140.7724  141.9384  155.6000 C.3     1  UNL1        0.0317
      2 C         139.2726  141.9234  155.6142 C.ar    1  UNL1       -0.0141
      3 C         138.5145  141.5449  154.3764 C.ar    1  UNL1       -0.0024
      4 C         137.0148  141.5300  154.3905 C.ar    1  UNL1        0.0144
      5 C         136.2728  141.8935  155.6425 C.ar    1  UNL1        0.0511
      6 C         137.0308  142.2720  156.8803 C.ar    1  UNL1        0.0226
      7 C         138.5306  142.2870  156.8661 C.ar    1  UNL1        0.0393
      8 N         134.7729  141.8786  155.6566 N.am    1  UNL1       -0.2804
      9 C         134.0383  140.6030  155.9451 C.2     1  UNL1        0.2495
     10 O         134.8036  139.3424  156.2194 O.2     1  UNL1       -0.2698
     11 H         134.2707  142.7060  155.4766 H       1  UNL1        0.1552
     12 C         132.5385  140.5881  155.9593 C.ar    1  UNL1        0.0536
     13 C         131.7709  141.6611  155.2456 C.ar    1  UNL1        0.0045
     14 C         130.2711  141.6462  155.2598 C.ar    1  UNL1        0.0001
     15 C         129.5387  140.5581  155.9877 C.ar    1  UNL1        0.0039
     16 C         130.3062  139.4850  156.7014 C.ar    1  UNL1        0.0716
     17 C         131.8061  139.5000  156.6872 C.ar    1  UNL1        0.0084
     18 C         129.5740  138.3970  157.4292 C.3     1  UNL1        0.4186
     19 F         128.8417  137.3089  158.1573 F       1  UNL1       -0.1659
     20 F         129.2630  139.3518  158.5436 F       1  UNL1       -0.1659
     21 F         129.8849  137.4421  156.3150 F       1  UNL1       -0.1659
     22 C         139.2887  142.6654  158.1039 C.1     1  UNL1       -0.0585
     23 C         140.0468  143.0439  159.3417 C.1     1  UNL1       -0.0386
     24 C         140.8048  143.4224  160.5795 C.ar    1  UNL1        0.1481
     25 N         142.2927  143.5769  160.6895 N.ar    1  UNL1       -0.1595
     26 N         142.6154  143.9628  162.1026 N.ar    1  UNL1       -0.2333
     27 C         141.3269  144.0468  162.8660 C.ar    1  UNL1        0.1659
     28 N         141.0280  144.3843  164.2966 N.ar    1  UNL1       -0.2050
     29 C         139.6101  144.3878  164.7859 C.ar    1  UNL1        0.2014
     30 N         138.4911  144.0538  163.8445 N.ar    1  UNL1       -0.2093
     31 C         138.7899  143.7163  162.4139 C.ar    1  UNL1        0.1322
     32 N         137.6709  143.3823  161.4726 N.pl3   1  UNL1       -0.3424
     33 C         140.2079  143.7128  161.9247 C.ar    1  UNL1        0.0938
     34 H         136.7402  143.3846  161.7937 H       1  UNL1        0.1437
     35 H         137.8670  143.1608  160.5336 H       1  UNL1        0.1437
     36 C         143.9860  144.2196  162.6554 C.3     1  UNL1        0.1316
     37 C         144.5721  143.2849  163.6718 C.3     1  UNL1        0.0538
     38 C         144.5426  143.6458  165.1275 C.3     1  UNL1        0.0046
     39 C         145.1875  141.9895  163.2326 C.3     1  UNL1        0.1391
     40 O         146.6603  141.7626  163.4039 O.3     1  UNL1       -0.3819
     41 H         147.1503  142.3763  162.8346 H       1  UNL1        0.2104
@<TRIPOS>BOND
     1     1     2    1
     2     2     3   ar
     3     3     4   ar
     4     4     5   ar
     5     5     8    1
     6     8     9   am
     7     9    10    2
     8     9    12    1
     9    12    13   ar
    10    13    14   ar
    11    14    15   ar
    12    15    16   ar
    13    16    18    1
    14    18    19    1
    15    18    20    1
    16    18    21    1
    17    16    17   ar
    18     5     6   ar
    19     6     7   ar
    20     7    22    1
    21    22    23    3
    22    23    24    1
    23    24    25   ar
    24    25    26   ar
    25    26    36    1
    26    36    37    1
    27    37    38    1
    28    37    39    1
    29    39    40    1
    30    26    27   ar
    31    27    28   ar
    32    28    29   ar
    33    29    30   ar
    34    30    31   ar
    35    31    32    1
    36    31    33   ar
    37     7     2   ar
    38    33    24   ar
    39    17    12   ar
    40    33    27   ar
    41     8    11    1
    42    40    41    1
    43    32    34    1
    44    32    35    1
@<TRIPOS>MOLECULE
*****
 41 44 0 0 0
SMALL
GASTEIGER

@<TRIPOS>ATOM
      1 C         138.5477  141.1959  156.0373 C.3     1  UNL1        0.0317
      2 C         139.1007  139.8068  155.9169 C.ar    1  UNL1       -0.0141
      3 C         139.3991  139.2329  154.5635 C.ar    1  UNL1       -0.0024
      4 C         139.9521  137.8439  154.4431 C.ar    1  UNL1        0.0144
      5 C         140.2067  137.0284  155.6761 C.ar    1  UNL1        0.0511
      6 C         139.9083  137.6023  157.0295 C.ar    1  UNL1        0.0226
      7 C         139.3553  138.9914  157.1499 C.ar    1  UNL1        0.0393
      8 N         140.7597  135.6393  155.5558 N.am    1  UNL1       -0.2804
      9 C         142.2266  135.3963  155.7539 C.2     1  UNL1        0.2495
     10 O         143.1404  136.5423  156.0723 O.2     1  UNL1       -0.2698
     11 H         140.1599  134.8871  155.3468 H       1  UNL1        0.1552
     12 C         142.7796  134.0071  155.6335 C.ar    1  UNL1        0.0536
     13 C         142.4628  133.1757  154.4259 C.ar    1  UNL1        0.0045
     14 C         143.0157  131.7866  154.3056 C.ar    1  UNL1        0.0001
     15 C         143.8856  131.2288  155.3929 C.ar    1  UNL1        0.0039
     16 C         144.2025  132.0601  156.6005 C.ar    1  UNL1        0.0716
     17 C         143.6494  133.4493  156.7208 C.ar    1  UNL1        0.0084
     18 C         145.0723  131.5025  157.6878 C.3     1  UNL1        0.4186
     19 F         145.9422  130.9449  158.7752 F       1  UNL1       -0.1659
     20 F         145.5325  132.8885  158.0305 F       1  UNL1       -0.1659
     21 F         144.6122  130.1165  157.3452 F       1  UNL1       -0.1659
     22 C         139.0569  139.5652  158.5033 C.1     1  UNL1       -0.0585
     23 C         138.7585  140.1390  159.8567 C.1     1  UNL1       -0.0386
     24 C         138.4601  140.7128  161.2101 C.ar    1  UNL1        0.1481
     25 N         138.0630  142.1302  161.4988 N.ar    1  UNL1       -0.1595
     26 N         137.8639  142.2633  162.9796 N.ar    1  UNL1       -0.2333
     27 C         138.1379  140.9282  163.6060 C.ar    1  UNL1        0.1659
     28 N         138.0994  140.4613  165.0310 N.ar    1  UNL1       -0.2050
     29 C         138.4294  139.0361  165.3623 C.ar    1  UNL1        0.2014
     30 N         138.7979  138.0778  164.2687 N.ar    1  UNL1       -0.2093
     31 C         138.8363  138.5447  162.8438 C.ar    1  UNL1        0.1322
     32 N         139.2048  137.5864  161.7502 N.pl3   1  UNL1       -0.3424
     33 C         138.5063  139.9699  162.5124 C.ar    1  UNL1        0.0938
     34 H         139.4213  136.6510  161.9677 H       1  UNL1        0.1437
     35 H         139.2300  137.8929  160.8150 H       1  UNL1        0.1437
     36 C         137.4615  143.5123  163.7063 C.3     1  UNL1        0.1316
     37 C         138.4953  144.5397  164.0612 C.3     1  UNL1        0.0538
     38 C         138.6923  144.9420  165.4928 C.3     1  UNL1        0.0046
     39 C         139.3321  145.1646  162.9845 C.3     1  UNL1        0.1391
     40 O         140.6077  145.8691  163.3399 O.3     1  UNL1       -0.3819
     41 H         140.4054  146.6581  163.8668 H       1  UNL1        0.2104
@<TRIPOS>BOND
     1     1     2    1
     2     2     3   ar
     3     3     4   ar
     4     4     5   ar
     5     5     8    1
     6     8     9   am
     7     9    10    2
     8     9    12    1
     9    12    13   ar
    10    13    14   ar
    11    14    15   ar
    12    15    16   ar
    13    16    18    1
    14    18    19    1
    15    18    20    1
    16    18    21    1
    17    16    17   ar
    18     5     6   ar
    19     6     7   ar
    20     7    22    1
    21    22    23    3
    22    23    24    1
    23    24    25   ar
    24    25    26   ar
    25    26    36    1
    26    36    37    1
    27    37    38    1
    28    37    39    1
    29    39    40    1
    30    26    27   ar
    31    27    28   ar
    32    28    29   ar
    33    29    30   ar
    34    30    31   ar
    35    31    32    1
    36    31    33   ar
    37     7     2   ar
    38    33    24   ar
    39    17    12   ar
    40    33    27   ar
    41     8    11    1
    42    40    41    1
    43    32    34    1
    44    32    35    1
@<TRIPOS>MOLECULE
*****
 41 44 0 0 0
SMALL
GASTEIGER

@<TRIPOS>ATOM
      1 C         144.4839  142.3457  159.1507 C.3     1  UNL1        0.0317
      2 C         144.2414  142.0179  160.5942 C.ar    1  UNL1       -0.0141
      3 C         144.6506  142.9879  161.6626 C.ar    1  UNL1       -0.0024
      4 C         144.4081  142.6601  163.1061 C.ar    1  UNL1        0.0144
      5 C         143.7563  141.3622  163.4812 C.ar    1  UNL1        0.0511
      6 C         143.3470  140.3922  162.4127 C.ar    1  UNL1        0.0226
      7 C         143.5896  140.7200  160.9693 C.ar    1  UNL1        0.0393
      8 N         143.5137  141.0343  164.9247 N.am    1  UNL1       -0.2804
      9 C         142.2556  141.4971  165.5977 C.2     1  UNL1        0.2495
     10 O         141.2401  142.2878  164.8273 O.2     1  UNL1       -0.2698
     11 H         144.1802  140.5154  165.4304 H       1  UNL1        0.1552
     12 C         142.0130  141.1693  167.0412 C.ar    1  UNL1        0.0536
     13 C         142.6007  139.9243  167.6366 C.ar    1  UNL1        0.0045
     14 C         142.3581  139.5964  169.0801 C.ar    1  UNL1        0.0001
     15 C         141.5279  140.5136  169.9283 C.ar    1  UNL1        0.0039
     16 C         140.9401  141.7586  169.3329 C.ar    1  UNL1        0.0716
     17 C         141.1827  142.0865  167.8894 C.ar    1  UNL1        0.0084
     18 C         140.1099  142.6759  170.1810 C.3     1  UNL1        0.4186
     19 F         139.2796  143.5932  171.0291 F       1  UNL1       -0.1659
     20 F         141.1617  143.7386  170.0613 F       1  UNL1       -0.1659
     21 F         139.0580  141.6132  170.3007 F       1  UNL1       -0.1659
     22 C         143.1804  139.7500  159.9008 C.1     1  UNL1       -0.0585
     23 C         142.7711  138.7800  158.8324 C.1     1  UNL1       -0.0386
     24 C         142.3618  137.8099  157.7639 C.ar    1  UNL1        0.1481
     25 N         143.1819  136.6621  157.2541 N.ar    1  UNL1       -0.1595
     26 N         142.3876  135.9602  156.1928 N.ar    1  UNL1       -0.2333
     27 C         141.0766  136.6743  156.0466 C.ar    1  UNL1        0.1659
     28 N         139.8952  136.4313  155.1548 N.ar    1  UNL1       -0.2050
     29 C         138.6980  137.3314  155.2340 C.ar    1  UNL1        0.2014
     30 N         138.6821  138.4746  156.2050 N.ar    1  UNL1       -0.2093
     31 C         139.8634  138.7177  157.0968 C.ar    1  UNL1        0.1322
     32 N         139.8475  139.8609  158.0678 N.pl3   1  UNL1       -0.3424
     33 C         141.0607  137.8175  157.0176 C.ar    1  UNL1        0.0938
     34 H         139.0617  140.4517  158.1198 H       1  UNL1        0.1437
     35 H         140.6229  140.0204  158.6532 H       1  UNL1        0.1437
     36 C         142.8270  134.7558  155.4143 C.3     1  UNL1        0.1316
     37 C         142.5162  133.3793  155.9233 C.3     1  UNL1        0.0538
     38 C         141.5611  132.4999  155.1720 C.3     1  UNL1        0.0046
     39 C         143.1604  132.8824  157.1834 C.3     1  UNL1        0.1391
     40 O         144.3243  133.6224  157.7730 O.3     1  UNL1       -0.3819
     41 H         145.0822  133.5661  157.1702 H       1  UNL1        0.2104
@<TRIPOS>BOND
     1     1     2    1
     2     2     3   ar
     3     3     4   ar
     4     4     5   ar
     5     5     8    1
     6     8     9   am
     7     9    10    2
     8     9    12    1
     9    12    13   ar
    10    13    14   ar
    11    14    15   ar
    12    15    16   ar
    13    16    18    1
    14    18    19    1
    15    18    20    1
    16    18    21    1
    17    16    17   ar
    18     5     6   ar
    19     6     7   ar
    20     7    22    1
    21    22    23    3
    22    23    24    1
    23    24    25   ar
    24    25    26   ar
    25    26    36    1
    26    36    37    1
    27    37    38    1
    28    37    39    1
    29    39    40    1
    30    26    27   ar
    31    27    28   ar
    32    28    29   ar
    33    29    30   ar
    34    30    31   ar
    35    31    32    1
    36    31    33   ar
    37     7     2   ar
    38    33    24   ar
    39    17    12   ar
    40    33    27   ar
    41     8    11    1
    42    40    41    1
    43    32    34    1
    44    32    35    1
@<TRIPOS>MOLECULE
*****
 41 44 0 0 0
SMALL
GASTEIGER

@<TRIPOS>ATOM
      1 C         140.3471  145.2156  158.4731 C.3     1  UNL1        0.0317
      2 C         140.6294  144.4187  159.7121 C.ar    1  UNL1       -0.0141
      3 C         141.6458  144.9058  160.7019 C.ar    1  UNL1       -0.0024
      4 C         141.9281  144.1089  161.9408 C.ar    1  UNL1        0.0144
      5 C         141.1939  142.8247  162.1902 C.ar    1  UNL1        0.0511
      6 C         140.1775  142.3376  161.2004 C.ar    1  UNL1        0.0226
      7 C         139.8952  143.1346  159.9614 C.ar    1  UNL1        0.0393
      8 N         141.4762  142.0278  163.4292 N.am    1  UNL1       -0.2804
      9 C         140.7902  142.3754  164.7170 C.2     1  UNL1        0.2495
     10 O         139.8219  143.5200  164.7659 O.2     1  UNL1       -0.2698
     11 H         142.1117  141.2765  163.3972 H       1  UNL1        0.1552
     12 C         141.0724  141.5784  165.9560 C.ar    1  UNL1        0.0536
     13 C         142.4420  141.0124  166.1880 C.ar    1  UNL1        0.0045
     14 C         142.7243  140.2154  167.4270 C.ar    1  UNL1        0.0001
     15 C         141.6369  139.9844  168.4341 C.ar    1  UNL1        0.0039
     16 C         140.2673  140.5504  168.2022 C.ar    1  UNL1        0.0716
     17 C         139.9850  141.3474  166.9631 C.ar    1  UNL1        0.0084
     18 C         139.1798  140.3194  169.2092 C.3     1  UNL1        0.4186
     19 F         138.0923  140.0884  170.2162 F       1  UNL1       -0.1659
     20 F         138.4582  139.4429  168.2289 F       1  UNL1       -0.1659
     21 F         139.9014  141.1959  170.1896 F       1  UNL1       -0.1659
     22 C         138.8788  142.6475  158.9717 C.1     1  UNL1       -0.0585
     23 C         137.8624  142.1605  157.9818 C.1     1  UNL1       -0.0386
     24 C         136.8460  141.6734  156.9921 C.ar    1  UNL1        0.1481
     25 N         135.8672  140.5578  157.2100 N.ar    1  UNL1       -0.1595
     26 N         135.0462  140.4114  155.9632 N.ar    1  UNL1       -0.2333
     27 C         135.5175  141.4364  154.9747 C.ar    1  UNL1        0.1659
     28 N         135.0775  141.7604  153.5778 N.ar    1  UNL1       -0.2050
     29 C         135.7499  142.8643  152.8168 C.ar    1  UNL1        0.2014
     30 N         136.8622  143.6443  153.4527 N.ar    1  UNL1       -0.2093
     31 C         137.3022  143.3204  154.8496 C.ar    1  UNL1        0.1322
     32 N         138.4145  144.1004  155.4855 N.pl3   1  UNL1       -0.3424
     33 C         136.6298  142.2164  155.6106 C.ar    1  UNL1        0.0938
     34 H         138.8558  144.8249  154.9860 H       1  UNL1        0.1437
     35 H         138.7033  143.8877  156.4023 H       1  UNL1        0.1437
     36 C         133.9469  139.4148  155.7434 C.3     1  UNL1        0.1316
     37 C         132.8249  139.3053  156.7331 C.3     1  UNL1        0.0538
     38 C         131.5213  139.9987  156.4688 C.3     1  UNL1        0.0046
     39 C         133.0066  138.5023  157.9870 C.3     1  UNL1        0.1391
     40 O         133.8840  139.0194  159.0882 O.3     1  UNL1       -0.3819
     41 H         134.8036  139.0510  158.7811 H       1  UNL1        0.2104
@<TRIPOS>BOND
     1     1     2    1
     2     2     3   ar
     3     3     4   ar
     4     4     5   ar
     5     5     8    1
     6     8     9   am
     7     9    10    2
     8     9    12    1
     9    12    13   ar
    10    13    14   ar
    11    14    15   ar
    12    15    16   ar
    13    16    18    1
    14    18    19    1
    15    18    20    1
    16    18    21    1
    17    16    17   ar
    18     5     6   ar
    19     6     7   ar
    20     7    22    1
    21    22    23    3
    22    23    24    1
    23    24    25   ar
    24    25    26   ar
    25    26    36    1
    26    36    37    1
    27    37    38    1
    28    37    39    1
    29    39    40    1
    30    26    27   ar
    31    27    28   ar
    32    28    29   ar
    33    29    30   ar
    34    30    31   ar
    35    31    32    1
    36    31    33   ar
    37     7     2   ar
    38    33    24   ar
    39    17    12   ar
    40    33    27   ar
    41     8    11    1
    42    40    41    1
    43    32    34    1
    44    32    35    1
@<TRIPOS>MOLECULE
*****
 41 44 0 0 0
SMALL
GASTEIGER

@<TRIPOS>ATOM
      1 C         138.4928  141.5624  157.1854 C.3     1  UNL1        0.0317
      2 C         138.9743  140.1857  156.8349 C.ar    1  UNL1       -0.0141
      3 C         138.9622  139.7279  155.4065 C.ar    1  UNL1       -0.0024
      4 C         139.4436  138.3513  155.0560 C.ar    1  UNL1        0.0144
      5 C         139.9372  137.4322  156.1339 C.ar    1  UNL1        0.0511
      6 C         139.9493  137.8900  157.5623 C.ar    1  UNL1        0.0226
      7 C         139.4678  139.2667  157.9128 C.ar    1  UNL1        0.0393
      8 N         140.4187  136.0555  155.7834 N.am    1  UNL1       -0.2804
      9 C         141.8870  135.7917  155.6271 C.2     1  UNL1        0.2495
     10 O         142.8738  136.9045  155.8212 O.2     1  UNL1       -0.2698
     11 H         139.7710  135.3251  155.6560 H       1  UNL1        0.1552
     12 C         142.3684  134.4150  155.2766 C.ar    1  UNL1        0.0536
     13 C         142.1195  133.8597  153.9056 C.ar    1  UNL1        0.0045
     14 C         142.6010  132.4830  153.5551 C.ar    1  UNL1        0.0001
     15 C         143.3314  131.6615  154.5757 C.ar    1  UNL1        0.0039
     16 C         143.5803  132.2166  155.9467 C.ar    1  UNL1        0.0716
     17 C         143.0988  133.5934  156.2972 C.ar    1  UNL1        0.0084
     18 C         144.3107  131.3952  156.9673 C.3     1  UNL1        0.4186
     19 F         145.0410  130.5737  157.9880 F       1  UNL1       -0.1659
     20 F         143.0006  130.9192  157.5217 F       1  UNL1       -0.1659
     21 F         145.6208  131.8711  156.4131 F       1  UNL1       -0.1659
     22 C         139.4799  139.7245  159.3412 C.1     1  UNL1       -0.0585
     23 C         139.4919  140.1822  160.7696 C.1     1  UNL1       -0.0386
     24 C         139.5040  140.6399  162.1980 C.ar    1  UNL1        0.1481
     25 N         140.0676  139.8807  163.3624 N.ar    1  UNL1       -0.1595
     26 N         139.8665  140.7088  164.5968 N.ar    1  UNL1       -0.2333
     27 C         139.1786  141.9799  164.1953 C.ar    1  UNL1        0.1659
     28 N         138.7274  143.1706  164.9881 N.ar    1  UNL1       -0.2050
     29 C         138.0520  144.3187  164.2983 C.ar    1  UNL1        0.2014
     30 N         137.8280  144.2761  162.8158 N.ar    1  UNL1       -0.2093
     31 C         138.2793  143.0854  162.0229 C.ar    1  UNL1        0.1322
     32 N         138.0552  143.0428  160.5404 N.pl3   1  UNL1       -0.3424
     33 C         138.9546  141.9373  162.7127 C.ar    1  UNL1        0.0938
     34 H         137.6120  143.7963  160.0877 H       1  UNL1        0.1437
     35 H         138.3515  142.2613  160.0200 H       1  UNL1        0.1437
     36 C         140.2806  140.3321  165.9884 C.3     1  UNL1        0.1316
     37 C         139.2769  139.7462  166.9369 C.3     1  UNL1        0.0538
     38 C         139.3232  140.1038  168.3929 C.3     1  UNL1        0.0046
     39 C         138.2270  138.8028  166.4293 C.3     1  UNL1        0.1391
     40 O         138.5456  137.8592  165.3077 O.3     1  UNL1       -0.3819
     41 H         138.7145  138.3651  164.4976 H       1  UNL1        0.2104
@<TRIPOS>BOND
     1     1     2    1
     2     2     3   ar
     3     3     4   ar
     4     4     5   ar
     5     5     8    1
     6     8     9   am
     7     9    10    2
     8     9    12    1
     9    12    13   ar
    10    13    14   ar
    11    14    15   ar
    12    15    16   ar
    13    16    18    1
    14    18    19    1
    15    18    20    1
    16    18    21    1
    17    16    17   ar
    18     5     6   ar
    19     6     7   ar
    20     7    22    1
    21    22    23    3
    22    23    24    1
    23    24    25   ar
    24    25    26   ar
    25    26    36    1
    26    36    37    1
    27    37    38    1
    28    37    39    1
    29    39    40    1
    30    26    27   ar
    31    27    28   ar
    32    28    29   ar
    33    29    30   ar
    34    30    31   ar
    35    31    32    1
    36    31    33   ar
    37     7     2   ar
    38    33    24   ar
    39    17    12   ar
    40    33    27   ar
    41     8    11    1
    42    40    41    1
    43    32    34    1
    44    32    35    1
@<TRIPOS>MOLECULE
*****
 41 44 0 0 0
SMALL
GASTEIGER

@<TRIPOS>ATOM
      1 C         138.5644  141.8685  158.9618 C.3     1  UNL1        0.0317
      2 C         139.0490  142.1561  160.3519 C.ar    1  UNL1       -0.0141
      3 C         138.0821  142.6125  161.4039 C.ar    1  UNL1       -0.0024
      4 C         138.5667  142.9001  162.7940 C.ar    1  UNL1        0.0144
      5 C         140.0184  142.7315  163.1321 C.ar    1  UNL1        0.0511
      6 C         140.9853  142.2752  162.0801 C.ar    1  UNL1        0.0226
      7 C         140.5006  141.9875  160.6900 C.ar    1  UNL1        0.0393
      8 N         140.5030  143.0192  164.5222 N.am    1  UNL1       -0.2804
      9 C         140.9232  141.8920  165.4182 C.2     1  UNL1        0.2495
     10 O         140.8587  140.4771  164.9242 O.2     1  UNL1       -0.2698
     11 H         140.5454  143.9478  164.8465 H       1  UNL1        0.1552
     12 C         141.4079  142.1796  166.8083 C.ar    1  UNL1        0.0536
     13 C         142.8668  142.0571  167.1343 C.ar    1  UNL1        0.0045
     14 C         143.3515  142.3448  168.5244 C.ar    1  UNL1        0.0001
     15 C         142.3772  142.7550  169.5886 C.ar    1  UNL1        0.0039
     16 C         140.9182  142.8776  169.2626 C.ar    1  UNL1        0.0716
     17 C         140.4335  142.5899  167.8725 C.ar    1  UNL1        0.0084
     18 C         139.9438  143.2878  170.3266 C.3     1  UNL1        0.4186
     19 F         138.9693  143.6979  171.3907 F       1  UNL1       -0.1659
     20 F         139.5066  141.8607  170.4764 F       1  UNL1       -0.1659
     21 F         140.3809  144.7149  170.1769 F       1  UNL1       -0.1659
     22 C         141.4676  141.5312  159.6380 C.1     1  UNL1       -0.0585
     23 C         142.4346  141.0748  158.5860 C.1     1  UNL1       -0.0386
     24 C         143.4016  140.6185  157.5339 C.ar    1  UNL1        0.1481
     25 N         144.4215  141.4744  156.8431 N.ar    1  UNL1       -0.1595
     26 N         145.1686  140.6110  155.8702 N.ar    1  UNL1       -0.2333
     27 C         144.6104  139.2216  155.9598 C.ar    1  UNL1        0.1659
     28 N         144.9555  137.9529  155.2379 N.ar    1  UNL1       -0.2050
     29 C         144.2084  136.6887  155.5443 C.ar    1  UNL1        0.2014
     30 N         143.1163  136.6934  156.5725 N.ar    1  UNL1       -0.2093
     31 C         142.7712  137.9622  157.2944 C.ar    1  UNL1        0.1322
     32 N         141.6791  137.9668  158.3226 N.pl3   1  UNL1       -0.3424
     33 C         143.5183  139.2263  156.9880 C.ar    1  UNL1        0.0938
     34 H         141.1888  137.1371  158.5237 H       1  UNL1        0.1437
     35 H         141.4526  138.7996  158.7964 H       1  UNL1        0.1437
     36 C         146.2790  141.0585  154.9665 C.3     1  UNL1        0.1316
     37 C         146.9626  142.3711  155.2113 C.3     1  UNL1        0.0538
     38 C         146.8177  143.4883  154.2210 C.3     1  UNL1        0.0046
     39 C         147.7909  142.5664  156.4465 C.3     1  UNL1        0.1391
     40 O         147.2857  143.4372  157.5585 O.3     1  UNL1       -0.3819
     41 H         147.2331  144.3558  157.2514 H       1  UNL1        0.2104
@<TRIPOS>BOND
     1     1     2    1
     2     2     3   ar
     3     3     4   ar
     4     4     5   ar
     5     5     8    1
     6     8     9   am
     7     9    10    2
     8     9    12    1
     9    12    13   ar
    10    13    14   ar
    11    14    15   ar
    12    15    16   ar
    13    16    18    1
    14    18    19    1
    15    18    20    1
    16    18    21    1
    17    16    17   ar
    18     5     6   ar
    19     6     7   ar
    20     7    22    1
    21    22    23    3
    22    23    24    1
    23    24    25   ar
    24    25    26   ar
    25    26    36    1
    26    36    37    1
    27    37    38    1
    28    37    39    1
    29    39    40    1
    30    26    27   ar
    31    27    28   ar
    32    28    29   ar
    33    29    30   ar
    34    30    31   ar
    35    31    32    1
    36    31    33   ar
    37     7     2   ar
    38    33    24   ar
    39    17    12   ar
    40    33    27   ar
    41     8    11    1
    42    40    41    1
    43    32    34    1
    44    32    35    1
@<TRIPOS>MOLECULE
*****
 41 44 0 0 0
SMALL
GASTEIGER

@<TRIPOS>ATOM
      1 C         140.5728  140.0492  156.2575 C.3     1  UNL1        0.0317
      2 C         139.1098  140.3604  156.1454 C.ar    1  UNL1       -0.0141
      3 C         138.3108  139.8076  155.0026 C.ar    1  UNL1       -0.0024
      4 C         136.8477  140.1187  154.8905 C.ar    1  UNL1        0.0144
      5 C         136.1835  140.9828  155.9212 C.ar    1  UNL1        0.0511
      6 C         136.9825  141.5356  157.0640 C.ar    1  UNL1        0.0226
      7 C         138.4456  141.2244  157.1761 C.ar    1  UNL1        0.0393
      8 N         134.7205  141.2939  155.8092 N.am    1  UNL1       -0.2804
      9 C         133.7025  140.2575  156.1827 C.2     1  UNL1        0.2495
     10 O         134.1476  138.9099  156.6684 O.2     1  UNL1       -0.2698
     11 H         134.4283  142.1784  155.4905 H       1  UNL1        0.1552
     12 C         132.2394  140.5687  156.0707 C.ar    1  UNL1        0.0536
     13 C         131.2328  139.7025  156.7681 C.ar    1  UNL1        0.0045
     14 C         129.7698  140.0137  156.6560 C.ar    1  UNL1        0.0001
     15 C         129.3132  141.1911  155.8465 C.ar    1  UNL1        0.0039
     16 C         130.3198  142.0573  155.1491 C.ar    1  UNL1        0.0716
     17 C         131.7829  141.7461  155.2612 C.ar    1  UNL1        0.0084
     18 C         129.8634  143.2347  154.3396 C.3     1  UNL1        0.4186
     19 F         129.4070  144.4121  153.5299 F       1  UNL1       -0.1659
     20 F         129.9405  142.4064  153.0914 F       1  UNL1       -0.1659
     21 F         129.7863  144.0632  155.5877 F       1  UNL1       -0.1659
     22 C         139.2446  141.7772  158.3189 C.1     1  UNL1       -0.0585
     23 C         140.0435  142.3301  159.4618 C.1     1  UNL1       -0.0386
     24 C         140.8425  142.8829  160.6046 C.ar    1  UNL1        0.1481
     25 N         142.3392  142.9311  160.6921 N.ar    1  UNL1       -0.1595
     26 N         142.7067  143.5626  162.0021 N.ar    1  UNL1       -0.2333
     27 C         141.4372  143.9047  162.7242 C.ar    1  UNL1        0.1659
     28 N         141.1816  144.5444  164.0566 N.ar    1  UNL1       -0.2050
     29 C         139.7737  144.7641  164.5253 C.ar    1  UNL1        0.2014
     30 N         138.6215  144.3440  163.6615 N.ar    1  UNL1       -0.2093
     31 C         138.8772  143.7043  162.3291 C.ar    1  UNL1        0.1322
     32 N         137.7251  143.2842  161.4654 N.pl3   1  UNL1       -0.3424
     33 C         140.2851  143.4846  161.8605 C.ar    1  UNL1        0.0938
     34 H         136.8010  143.4284  161.7730 H       1  UNL1        0.1437
     35 H         137.8929  142.8643  160.5908 H       1  UNL1        0.1437
     36 C         144.0993  143.8088  162.5023 C.3     1  UNL1        0.1316
     37 C         144.7038  142.8889  163.5214 C.3     1  UNL1        0.0538
     38 C         145.5403  141.7252  163.0786 C.3     1  UNL1        0.0046
     39 C         144.4718  143.1328  164.9831 C.3     1  UNL1        0.1391
     40 O         143.1250  142.8604  165.5845 O.3     1  UNL1       -0.3819
     41 H         142.4742  143.4757  165.2120 H       1  UNL1        0.2104
@<TRIPOS>BOND
     1     1     2    1
     2     2     3   ar
     3     3     4   ar
     4     4     5   ar
     5     5     8    1
     6     8     9   am
     7     9    10    2
     8     9    12    1
     9    12    13   ar
    10    13    14   ar
    11    14    15   ar
    12    15    16   ar
    13    16    18    1
    14    18    19    1
    15    18    20    1
    16    18    21    1
    17    16    17   ar
    18     5     6   ar
    19     6     7   ar
    20     7    22    1
    21    22    23    3
    22    23    24    1
    23    24    25   ar
    24    25    26   ar
    25    26    36    1
    26    36    37    1
    27    37    38    1
    28    37    39    1
    29    39    40    1
    30    26    27   ar
    31    27    28   ar
    32    28    29   ar
    33    29    30   ar
    34    30    31   ar
    35    31    32    1
    36    31    33   ar
    37     7     2   ar
    38    33    24   ar
    39    17    12   ar
    40    33    27   ar
    41     8    11    1
    42    40    41    1
    43    32    34    1
    44    32    35    1
@<TRIPOS>MOLECULE
*****
 41 44 0 0 0
SMALL
GASTEIGER

@<TRIPOS>ATOM
      1 C         143.4755  139.8966  159.2145 C.3     1  UNL1        0.0317
      2 C         143.1705  140.2049  160.6504 C.ar    1  UNL1       -0.0141
      3 C         144.0222  139.6236  161.7397 C.ar    1  UNL1       -0.0024
      4 C         143.7172  139.9319  163.1756 C.ar    1  UNL1        0.0144
      5 C         142.5604  140.8216  163.5223 C.ar    1  UNL1        0.0511
      6 C         141.7086  141.4030  162.4330 C.ar    1  UNL1        0.0226
      7 C         142.0137  141.0946  160.9971 C.ar    1  UNL1        0.0393
      8 N         142.2553  141.1300  164.9582 N.am    1  UNL1       -0.2804
      9 C         141.1731  140.3769  165.6735 C.2     1  UNL1        0.2495
     10 O         140.3959  139.3154  164.9528 O.2     1  UNL1       -0.2698
     11 H         142.7654  141.8267  165.4312 H       1  UNL1        0.1552
     12 C         140.8680  140.6853  167.1094 C.ar    1  UNL1        0.0536
     13 C         139.6827  140.0532  167.7768 C.ar    1  UNL1        0.0045
     14 C         139.3777  140.3615  169.2127 C.ar    1  UNL1        0.0001
     15 C         140.2579  141.3020  169.9813 C.ar    1  UNL1        0.0039
     16 C         141.4433  141.9342  169.3139 C.ar    1  UNL1        0.0716
     17 C         141.7483  141.6258  167.8779 C.ar    1  UNL1        0.0084
     18 C         142.3235  142.8746  170.0823 C.3     1  UNL1        0.4186
     19 F         143.2040  143.8151  170.8507 F       1  UNL1       -0.1659
     20 F         143.3453  141.7880  170.2417 F       1  UNL1       -0.1659
     21 F         141.3019  143.9613  169.9229 F       1  UNL1       -0.1659
     22 C         141.1619  141.6760  159.9078 C.1     1  UNL1       -0.0585
     23 C         140.3102  142.2575  158.8185 C.1     1  UNL1       -0.0386
     24 C         139.4584  142.8388  157.7292 C.ar    1  UNL1        0.1481
     25 N         139.7109  144.1284  157.0060 N.ar    1  UNL1       -0.1595
     26 N         138.6132  144.3192  156.0017 N.ar    1  UNL1       -0.2333
     27 C         137.6823  143.1475  156.1043 C.ar    1  UNL1        0.1659
     28 N         136.4264  142.7956  155.3635 N.ar    1  UNL1       -0.2050
     29 C         135.6930  141.5286  155.6903 C.ar    1  UNL1        0.2014
     30 N         136.2154  140.6137  156.7580 N.ar    1  UNL1       -0.2093
     31 C         137.4712  140.9656  157.4988 C.ar    1  UNL1        0.1322
     32 N         137.9936  140.0507  158.5665 N.pl3   1  UNL1       -0.3424
     33 C         138.2047  142.2326  157.1720 C.ar    1  UNL1        0.0938
     34 H         137.5122  139.2191  158.7810 H       1  UNL1        0.1437
     35 H         138.8179  140.2817  159.0528 H       1  UNL1        0.1437
     36 C         138.4713  145.4782  155.0602 C.3     1  UNL1        0.1316
     37 C         139.2085  146.7569  155.3281 C.3     1  UNL1        0.0538
     38 C         140.1110  147.3362  154.2794 C.3     1  UNL1        0.0046
     39 C         139.0431  147.4562  156.6448 C.3     1  UNL1        0.1391
     40 O         138.5550  148.8740  156.6850 O.3     1  UNL1       -0.3819
     41 H         139.2146  149.4548  156.2745 H       1  UNL1        0.2104
@<TRIPOS>BOND
     1     1     2    1
     2     2     3   ar
     3     3     4   ar
     4     4     5   ar
     5     5     8    1
     6     8     9   am
     7     9    10    2
     8     9    12    1
     9    12    13   ar
    10    13    14   ar
    11    14    15   ar
    12    15    16   ar
    13    16    18    1
    14    18    19    1
    15    18    20    1
    16    18    21    1
    17    16    17   ar
    18     5     6   ar
    19     6     7   ar
    20     7    22    1
    21    22    23    3
    22    23    24    1
    23    24    25   ar
    24    25    26   ar
    25    26    36    1
    26    36    37    1
    27    37    38    1
    28    37    39    1
    29    39    40    1
    30    26    27   ar
    31    27    28   ar
    32    28    29   ar
    33    29    30   ar
    34    30    31   ar
    35    31    32    1
    36    31    33   ar
    37     7     2   ar
    38    33    24   ar
    39    17    12   ar
    40    33    27   ar
    41     8    11    1
    42    40    41    1
    43    32    34    1
    44    32    35    1
