@<TRIPOS>MOLECULE
*****
 32 35 0 0 0
SMALL
GASTEIGER

@<TRIPOS>ATOM
      1 C         138.1703  140.6615  162.3167 C.ar    1  UNL1        0.1393
      2 C         138.2636  140.7320  160.8213 C.ar    1  UNL1        0.0689
      3 C         138.3207  142.0647  160.1354 C.ar    1  UNL1        0.1375
      4 N         138.2844  143.3270  160.9450 N.ar    1  UNL1       -0.1988
      5 C         138.1912  143.2565  162.4404 C.ar    1  UNL1        0.2194
      6 N         138.1341  141.9238  163.1262 N.ar    1  UNL1       -0.1986
      7 N         138.4140  142.1353  158.6399 N.pl3   1  UNL1       -0.2902
      8 C         139.1603  143.2609  157.9873 C.3     1  UNL1        0.1095
      9 C         139.2536  143.3314  156.4919 C.3     1  UNL1        0.0939
     10 N         138.6006  142.2764  155.6491 N.3     1  UNL1       -0.2686
     11 C         138.6939  142.3469  154.1537 C.3     1  UNL1        0.0897
     12 C         137.8542  141.1507  156.3017 C.3     1  UNL1        0.0939
     13 C         137.7609  141.0802  157.7972 C.3     1  UNL1        0.1095
     14 N         138.1133  139.3287  163.0027 N.pl3   1  UNL1       -0.2780
     15 H         137.2440  138.8977  163.1693 H       1  UNL1        0.1555
     16 C         142.6169  138.2507  165.5396 C.3     1  UNL1        0.0399
     17 C         141.4508  138.1571  164.6008 C.ar    1  UNL1        0.0293
     18 C         141.2113  137.0675  163.5981 C.ar    1  UNL1        0.1030
     19 N         139.9319  137.3738  162.8774 N.ar    1  UNL1       -0.2228
     20 C         139.3807  138.6527  163.4347 C.ar    1  UNL1        0.1643
     21 S         140.3194  139.1368  164.4998 S.2     1  UNL1       -0.0557
     22 N         138.1549  144.5188  163.2499 N.pl3   1  UNL1       -0.2994
     23 H         137.5920  145.2730  162.9609 H       1  UNL1        0.1499
     24 C         138.9765  144.6320  164.4998 C.3     1  UNL1        0.1120
     25 C         138.3353  145.0764  165.7810 C.3     1  UNL1        0.0278
     26 C         140.4392  144.3009  164.4685 C.ar    1  UNL1        0.0769
     27 C         141.3990  145.2103  163.7602 C.ar    1  UNL1        0.0187
     28 C         142.8617  144.8792  163.7289 C.ar    1  UNL1        0.0325
     29 C         143.3645  143.6386  164.4059 C.ar    1  UNL1        0.1592
     30 F         144.8271  143.3075  164.3746 F       1  UNL1       -0.2025
     31 C         142.4046  142.7292  165.1142 C.ar    1  UNL1        0.1280
     32 N         140.9419  143.0604  165.1455 N.ar    1  UNL1       -0.2442
@<TRIPOS>BOND
     1    16    17    1
     2    17    18   ar
     3    18    19   ar
     4    19    20   ar
     5    20    14    1
     6    14     1    1
     7     1     2   ar
     8     2     3   ar
     9     3     7    1
    10     7     8    1
    11     8     9    1
    12     9    10    1
    13    10    11    1
    14    10    12    1
    15    12    13    1
    16     3     4   ar
    17     4     5   ar
    18     5    22    1
    19    22    24    1
    20    24    25    1
    21    24    26    1
    22    26    27   ar
    23    27    28   ar
    24    28    29   ar
    25    29    30    1
    26    29    31   ar
    27    31    32   ar
    28     5     6   ar
    29    20    21   ar
    30    21    17   ar
    31     6     1   ar
    32    13     7    1
    33    32    26   ar
    34    14    15    1
    35    22    23    1
@<TRIPOS>MOLECULE
*****
 32 35 0 0 0
SMALL
GASTEIGER

@<TRIPOS>ATOM
      1 C         138.4621  141.9497  160.7528 C.ar    1  UNL1        0.1393
      2 C         139.1150  142.3442  159.4612 C.ar    1  UNL1        0.0689
      3 C         139.7331  143.7033  159.3177 C.ar    1  UNL1        0.1375
      4 N         139.6984  144.6680  160.4659 N.ar    1  UNL1       -0.1988
      5 C         139.0456  144.2735  161.7574 C.ar    1  UNL1        0.2194
      6 N         138.4275  142.9144  161.9009 N.ar    1  UNL1       -0.1986
      7 N         140.3860  144.0978  158.0261 N.pl3   1  UNL1       -0.2902
      8 C         141.4513  145.1537  158.0161 C.3     1  UNL1        0.1095
      9 C         142.1042  145.5482  156.7246 C.3     1  UNL1        0.0939
     10 N         141.6917  144.8869  155.4430 N.3     1  UNL1       -0.2686
     11 C         142.3445  145.2814  154.1514 C.3     1  UNL1        0.0897
     12 C         140.6263  143.8310  155.4530 C.3     1  UNL1        0.0939
     13 C         139.9734  143.4365  156.7446 C.3     1  UNL1        0.1095
     14 N         137.8440  140.5905  160.8963 N.pl3   1  UNL1       -0.2780
     15 H         137.0091  140.3767  160.4203 H       1  UNL1        0.1555
     16 C         139.2528  137.7314  165.1059 C.3     1  UNL1        0.0399
     17 C         139.1453  138.2430  163.6999 C.ar    1  UNL1        0.0293
     18 C         139.8624  137.6910  162.5036 C.ar    1  UNL1        0.1030
     19 N         139.4621  138.5032  161.3077 N.ar    1  UNL1       -0.2228
     20 C         138.4977  139.5572  161.7649 C.ar    1  UNL1        0.1643
     21 S         138.3020  139.3963  163.2434 S.2     1  UNL1       -0.0557
     22 N         139.0109  145.2382  162.9056 N.pl3   1  UNL1       -0.2994
     23 H         138.6475  146.1441  162.7766 H       1  UNL1        0.1499
     24 C         139.5299  144.8228  164.2502 C.3     1  UNL1        0.1120
     25 C         138.6248  144.8539  165.4458 C.3     1  UNL1        0.0278
     26 C         140.9542  144.3762  164.3991 C.ar    1  UNL1        0.0769
     27 C         142.0654  145.2145  163.8403 C.ar    1  UNL1        0.0187
     28 C         143.4896  144.7679  163.9892 C.ar    1  UNL1        0.0325
     29 C         143.8026  143.4830  164.6970 C.ar    1  UNL1        0.1592
     30 F         145.2268  143.0364  164.8460 F       1  UNL1       -0.2025
     31 C         142.6914  142.6446  165.2559 C.ar    1  UNL1        0.1280
     32 N         141.2671  143.0912  165.1069 N.ar    1  UNL1       -0.2442
@<TRIPOS>BOND
     1    16    17    1
     2    17    18   ar
     3    18    19   ar
     4    19    20   ar
     5    20    14    1
     6    14     1    1
     7     1     2   ar
     8     2     3   ar
     9     3     7    1
    10     7     8    1
    11     8     9    1
    12     9    10    1
    13    10    11    1
    14    10    12    1
    15    12    13    1
    16     3     4   ar
    17     4     5   ar
    18     5    22    1
    19    22    24    1
    20    24    25    1
    21    24    26    1
    22    26    27   ar
    23    27    28   ar
    24    28    29   ar
    25    29    30    1
    26    29    31   ar
    27    31    32   ar
    28     5     6   ar
    29    20    21   ar
    30    21    17   ar
    31     6     1   ar
    32    13     7    1
    33    32    26   ar
    34    14    15    1
    35    22    23    1
@<TRIPOS>MOLECULE
*****
 32 35 0 0 0
SMALL
GASTEIGER

@<TRIPOS>ATOM
      1 C         141.5799  144.7078  161.3805 C.ar    1  UNL1        0.1393
      2 C         141.6368  144.7786  159.8832 C.ar    1  UNL1        0.0689
      3 C         140.4663  144.3188  159.0657 C.ar    1  UNL1        0.1375
      4 N         139.2389  143.7882  159.7454 N.ar    1  UNL1       -0.1988
      5 C         139.1820  143.7174  161.2426 C.ar    1  UNL1        0.2194
      6 N         140.3525  144.1772  162.0601 N.ar    1  UNL1       -0.1986
      7 N         140.5231  144.3895  157.5684 N.pl3   1  UNL1       -0.2902
      8 C         140.3758  145.7109  156.8739 C.3     1  UNL1        0.1095
      9 C         140.4326  145.7817  155.3767 C.3     1  UNL1        0.0939
     10 N         140.6368  144.5311  154.5739 N.3     1  UNL1       -0.2686
     11 C         140.6937  144.6019  153.0767 C.3     1  UNL1        0.0897
     12 C         140.7842  143.2098  155.2684 C.3     1  UNL1        0.0939
     13 C         140.7274  143.1390  156.7657 C.3     1  UNL1        0.1095
     14 N         142.7505  145.1676  162.1981 N.pl3   1  UNL1       -0.2780
     15 H         143.0383  146.1083  162.1601 H       1  UNL1        0.1555
     16 C         145.7846  141.1557  163.8041 C.3     1  UNL1        0.0399
     17 C         144.8772  142.3500  163.8117 C.ar    1  UNL1        0.0293
     18 C         144.3408  143.0421  165.0297 C.ar    1  UNL1        0.1030
     19 N         143.4789  144.1818  164.5734 N.ar    1  UNL1       -0.2228
     20 C         143.4825  144.1941  163.0735 C.ar    1  UNL1        0.1643
     21 S         144.3467  143.0620  162.6028 S.2     1  UNL1       -0.0557
     22 N         137.9546  143.1868  161.9222 N.pl3   1  UNL1       -0.2994
     23 H         137.1210  143.0695  161.4117 H       1  UNL1        0.1499
     24 C         137.9972  142.8349  163.3797 C.3     1  UNL1        0.1120
     25 C         137.7992  143.9021  164.4151 C.3     1  UNL1        0.0278
     26 C         138.2378  141.4158  163.8020 C.ar    1  UNL1        0.0769
     27 C         138.5429  141.1016  165.2366 C.ar    1  UNL1        0.0187
     28 C         138.7835  139.6826  165.6589 C.ar    1  UNL1        0.0325
     29 C         138.7191  138.5776  164.6465 C.ar    1  UNL1        0.1592
     30 F         138.9597  137.1585  165.0687 F       1  UNL1       -0.2025
     31 C         138.4140  138.8917  163.2118 C.ar    1  UNL1        0.1280
     32 N         138.1734  140.3109  162.7896 N.ar    1  UNL1       -0.2442
@<TRIPOS>BOND
     1    16    17    1
     2    17    18   ar
     3    18    19   ar
     4    19    20   ar
     5    20    14    1
     6    14     1    1
     7     1     2   ar
     8     2     3   ar
     9     3     7    1
    10     7     8    1
    11     8     9    1
    12     9    10    1
    13    10    11    1
    14    10    12    1
    15    12    13    1
    16     3     4   ar
    17     4     5   ar
    18     5    22    1
    19    22    24    1
    20    24    25    1
    21    24    26    1
    22    26    27   ar
    23    27    28   ar
    24    28    29   ar
    25    29    30    1
    26    29    31   ar
    27    31    32   ar
    28     5     6   ar
    29    20    21   ar
    30    21    17   ar
    31     6     1   ar
    32    13     7    1
    33    32    26   ar
    34    14    15    1
    35    22    23    1
@<TRIPOS>MOLECULE
*****
 32 35 0 0 0
SMALL
GASTEIGER

@<TRIPOS>ATOM
      1 C         138.5602  140.8383  160.5373 C.ar    1  UNL1        0.1393
      2 C         139.2764  140.2768  159.3449 C.ar    1  UNL1        0.0689
      3 C         139.8183  138.8787  159.3853 C.ar    1  UNL1        0.1375
      4 N         139.6441  138.0421  160.6181 N.ar    1  UNL1       -0.1988
      5 C         138.9279  138.6036  161.8105 C.ar    1  UNL1        0.2194
      6 N         138.3860  140.0017  161.7701 N.ar    1  UNL1       -0.1986
      7 N         140.5345  138.3172  158.1928 N.pl3   1  UNL1       -0.2902
      8 C         139.7513  137.7504  157.0459 C.3     1  UNL1        0.1095
      9 C         140.4674  137.1888  155.8536 C.3     1  UNL1        0.0939
     10 N         141.9667  137.1941  155.8080 N.3     1  UNL1       -0.2686
     11 C         142.6828  136.6325  154.6156 C.3     1  UNL1        0.0897
     12 C         142.7499  137.7609  156.9549 C.3     1  UNL1        0.0939
     13 C         142.0337  138.3224  158.1473 C.3     1  UNL1        0.1095
     14 N         138.0183  142.2364  160.4969 N.pl3   1  UNL1       -0.2780
     15 H         137.4068  142.5067  159.7742 H       1  UNL1        0.1555
     16 C         138.4181  144.7263  165.1360 C.3     1  UNL1        0.0399
     17 C         138.5918  144.3673  163.6900 C.ar    1  UNL1        0.0293
     18 C         139.4238  145.1140  162.6898 C.ar    1  UNL1        0.1030
     19 N         139.3101  144.4067  161.3720 N.ar    1  UNL1       -0.2228
     20 C         138.4080  143.2228  161.5576 C.ar    1  UNL1        0.1643
     21 S         137.9641  143.1984  162.9902 S.2     1  UNL1       -0.0557
     22 N         138.7537  137.7670  163.0432 N.pl3   1  UNL1       -0.2994
     23 H         137.9373  137.2299  163.1623 H       1  UNL1        0.1499
     24 C         139.8234  137.7488  164.0946 C.3     1  UNL1        0.1120
     25 C         141.1113  137.0227  163.8417 C.3     1  UNL1        0.0278
     26 C         139.6052  138.4568  165.3990 C.ar    1  UNL1        0.0769
     27 C         138.2803  138.3552  166.0949 C.ar    1  UNL1        0.0187
     28 C         138.0621  139.0631  167.3992 C.ar    1  UNL1        0.0325
     29 C         139.1688  139.8726  168.0076 C.ar    1  UNL1        0.1592
     30 F         138.9505  140.5805  169.3119 F       1  UNL1       -0.2025
     31 C         140.4937  139.9741  167.3116 C.ar    1  UNL1        0.1280
     32 N         140.7119  139.2662  166.0073 N.ar    1  UNL1       -0.2442
@<TRIPOS>BOND
     1    16    17    1
     2    17    18   ar
     3    18    19   ar
     4    19    20   ar
     5    20    14    1
     6    14     1    1
     7     1     2   ar
     8     2     3   ar
     9     3     7    1
    10     7     8    1
    11     8     9    1
    12     9    10    1
    13    10    11    1
    14    10    12    1
    15    12    13    1
    16     3     4   ar
    17     4     5   ar
    18     5    22    1
    19    22    24    1
    20    24    25    1
    21    24    26    1
    22    26    27   ar
    23    27    28   ar
    24    28    29   ar
    25    29    30    1
    26    29    31   ar
    27    31    32   ar
    28     5     6   ar
    29    20    21   ar
    30    21    17   ar
    31     6     1   ar
    32    13     7    1
    33    32    26   ar
    34    14    15    1
    35    22    23    1
@<TRIPOS>MOLECULE
*****
 32 35 0 0 0
SMALL
GASTEIGER

@<TRIPOS>ATOM
      1 C         138.8664  139.6817  162.3323 C.ar    1  UNL1        0.1393
      2 C         139.2540  139.4159  160.9078 C.ar    1  UNL1        0.0689
      3 C         140.4783  138.6049  160.6026 C.ar    1  UNL1        0.1375
      4 N         141.3151  138.0598  161.7219 N.ar    1  UNL1       -0.1988
      5 C         140.9275  138.3256  163.1463 C.ar    1  UNL1        0.2194
      6 N         139.7031  139.1366  163.4515 N.ar    1  UNL1       -0.1986
      7 N         140.8660  138.3390  159.1781 N.pl3   1  UNL1       -0.2902
      8 C         142.3052  138.1102  158.8228 C.3     1  UNL1        0.1095
      9 C         142.6929  137.8444  157.3984 C.3     1  UNL1        0.0939
     10 N         141.6414  137.8072  156.3293 N.3     1  UNL1       -0.2686
     11 C         142.0290  137.5414  154.9049 C.3     1  UNL1        0.0897
     12 C         140.2021  138.0360  156.6846 C.3     1  UNL1        0.0939
     13 C         139.8145  138.3019  158.1091 C.3     1  UNL1        0.1095
     14 N         137.6419  140.4927  162.6375 N.pl3   1  UNL1       -0.2780
     15 H         136.7504  140.0793  162.5787 H       1  UNL1        0.1555
     16 C         138.4098  144.8660  165.4950 C.3     1  UNL1        0.0399
     17 C         138.1288  143.9437  164.3459 C.ar    1  UNL1        0.0293
     18 C         137.8352  144.3579  162.9344 C.ar    1  UNL1        0.1030
     19 N         137.6171  143.1155  162.1226 N.ar    1  UNL1       -0.2228
     20 C         137.7759  141.9335  163.0324 C.ar    1  UNL1        0.1643
     21 S         138.0921  142.4454  164.4065 S.2     1  UNL1       -0.0557
     22 N         141.7643  137.7805  164.2655 N.pl3   1  UNL1       -0.2994
     23 H         141.6104  136.8655  164.5946 H       1  UNL1        0.1499
     24 C         142.8355  138.6295  164.8832 C.3     1  UNL1        0.1120
     25 C         143.4196  138.2509  166.2120 C.3     1  UNL1        0.0278
     26 C         143.3228  139.8572  164.1723 C.ar    1  UNL1        0.0769
     27 C         142.8681  141.2142  164.6215 C.ar    1  UNL1        0.0187
     28 C         143.3553  142.4418  163.9106 C.ar    1  UNL1        0.0325
     29 C         144.2973  142.3126  162.7503 C.ar    1  UNL1        0.1592
     30 F         144.7845  143.5402  162.0394 F       1  UNL1       -0.2025
     31 C         144.7520  140.9556  162.3011 C.ar    1  UNL1        0.1280
     32 N         144.2647  139.7279  163.0121 N.ar    1  UNL1       -0.2442
@<TRIPOS>BOND
     1    16    17    1
     2    17    18   ar
     3    18    19   ar
     4    19    20   ar
     5    20    14    1
     6    14     1    1
     7     1     2   ar
     8     2     3   ar
     9     3     7    1
    10     7     8    1
    11     8     9    1
    12     9    10    1
    13    10    11    1
    14    10    12    1
    15    12    13    1
    16     3     4   ar
    17     4     5   ar
    18     5    22    1
    19    22    24    1
    20    24    25    1
    21    24    26    1
    22    26    27   ar
    23    27    28   ar
    24    28    29   ar
    25    29    30    1
    26    29    31   ar
    27    31    32   ar
    28     5     6   ar
    29    20    21   ar
    30    21    17   ar
    31     6     1   ar
    32    13     7    1
    33    32    26   ar
    34    14    15    1
    35    22    23    1
@<TRIPOS>MOLECULE
*****
 32 35 0 0 0
SMALL
GASTEIGER

@<TRIPOS>ATOM
      1 C         141.3136  138.0239  161.9815 C.ar    1  UNL1        0.1393
      2 C         141.5180  138.1206  160.4987 C.ar    1  UNL1        0.0689
      3 C         142.8281  138.6054  159.9523 C.ar    1  UNL1        0.1375
      4 N         143.9338  138.9934  160.8887 N.ar    1  UNL1       -0.1988
      5 C         143.7294  138.8966  162.3715 C.ar    1  UNL1        0.2194
      6 N         142.4193  138.4118  162.9179 N.ar    1  UNL1       -0.1986
      7 N         143.0325  138.7022  158.4694 N.pl3   1  UNL1       -0.2902
      8 C         143.5290  139.9810  157.8627 C.3     1  UNL1        0.1095
      9 C         143.7334  140.0779  156.3798 C.3     1  UNL1        0.0939
     10 N         143.4413  138.8959  155.5037 N.3     1  UNL1       -0.2686
     11 C         143.6457  138.9927  154.0208 C.3     1  UNL1        0.0897
     12 C         142.9448  137.6171  156.1104 C.3     1  UNL1        0.0939
     13 C         142.7404  137.5203  157.5933 C.3     1  UNL1        0.1095
     14 N         140.0035  137.5391  162.5280 N.pl3   1  UNL1       -0.2780
     15 H         139.5871  136.7263  162.1601 H       1  UNL1        0.1555
     16 C         137.8335  138.7420  167.1890 C.3     1  UNL1        0.0399
     17 C         138.3303  138.8455  165.7775 C.ar    1  UNL1        0.0293
     18 C         138.2453  140.0589  164.8996 C.ar    1  UNL1        0.1030
     19 N         138.8618  139.7171  163.5755 N.ar    1  UNL1       -0.2228
     20 C         139.3277  138.2926  163.6350 C.ar    1  UNL1        0.1643
     21 S         138.9992  137.7539  164.9959 S.2     1  UNL1       -0.0557
     22 N         144.8352  139.2846  163.3079 N.pl3   1  UNL1       -0.2994
     23 H         145.6280  138.7080  163.3991 H       1  UNL1        0.1499
     24 C         144.7330  140.5509  164.1053 C.3     1  UNL1        0.1120
     25 C         145.7958  141.6023  163.9826 C.3     1  UNL1        0.0278
     26 C         143.5680  140.7660  165.0254 C.ar    1  UNL1        0.0769
     27 C         143.2129  139.7222  166.0424 C.ar    1  UNL1        0.0187
     28 C         142.0479  139.9372  166.9625 C.ar    1  UNL1        0.0325
     29 C         141.2379  141.1960  166.8655 C.ar    1  UNL1        0.1592
     30 F         140.0730  141.4110  167.7856 F       1  UNL1       -0.2025
     31 C         141.5930  142.2398  165.8485 C.ar    1  UNL1        0.1280
     32 N         142.7581  142.0248  164.9284 N.ar    1  UNL1       -0.2442
@<TRIPOS>BOND
     1    16    17    1
     2    17    18   ar
     3    18    19   ar
     4    19    20   ar
     5    20    14    1
     6    14     1    1
     7     1     2   ar
     8     2     3   ar
     9     3     7    1
    10     7     8    1
    11     8     9    1
    12     9    10    1
    13    10    11    1
    14    10    12    1
    15    12    13    1
    16     3     4   ar
    17     4     5   ar
    18     5    22    1
    19    22    24    1
    20    24    25    1
    21    24    26    1
    22    26    27   ar
    23    27    28   ar
    24    28    29   ar
    25    29    30    1
    26    29    31   ar
    27    31    32   ar
    28     5     6   ar
    29    20    21   ar
    30    21    17   ar
    31     6     1   ar
    32    13     7    1
    33    32    26   ar
    34    14    15    1
    35    22    23    1
@<TRIPOS>MOLECULE
*****
 32 35 0 0 0
SMALL
GASTEIGER

@<TRIPOS>ATOM
      1 C         142.3462  143.7015  160.8921 C.ar    1  UNL1        0.1393
      2 C         141.5696  143.5032  159.6243 C.ar    1  UNL1        0.0689
      3 C         140.1292  143.9159  159.5548 C.ar    1  UNL1        0.1375
      4 N         139.4654  144.5269  160.7532 N.ar    1  UNL1       -0.1988
      5 C         140.2421  144.7252  162.0211 C.ar    1  UNL1        0.2194
      6 N         141.6825  144.3125  162.0905 N.ar    1  UNL1       -0.1986
      7 N         139.3524  143.7176  158.2870 N.pl3   1  UNL1       -0.2902
      8 C         138.2687  142.6824  158.2255 C.3     1  UNL1        0.1095
      9 C         137.4920  142.4841  156.9577 C.3     1  UNL1        0.0939
     10 N         137.7990  143.3210  155.7513 N.3     1  UNL1       -0.2686
     11 C         137.0222  143.1227  154.4835 C.3     1  UNL1        0.0897
     12 C         138.8827  144.3563  155.8128 C.3     1  UNL1        0.0939
     13 C         139.6594  144.5546  157.0807 C.3     1  UNL1        0.1095
     14 N         143.7867  143.2888  160.9616 N.pl3   1  UNL1       -0.2780
     15 H         144.3937  143.4923  160.2137 H       1  UNL1        0.1555
     16 C         145.1352  139.4408  164.3165 C.3     1  UNL1        0.0399
     17 C         144.9221  140.7972  163.7127 C.ar    1  UNL1        0.0293
     18 C         145.2693  142.1103  164.3495 C.ar    1  UNL1        0.1030
     19 N         144.8863  143.2034  163.3964 N.ar    1  UNL1       -0.2228
     20 C         144.3023  142.5660  162.1706 C.ar    1  UNL1        0.1643
     21 S         144.3245  141.0789  162.3660 S.2     1  UNL1       -0.0557
     22 N         139.5783  145.3362  163.2194 N.pl3   1  UNL1       -0.2994
     23 H         139.5493  146.3151  163.3204 H       1  UNL1        0.1499
     24 C         138.9589  144.4558  164.2640 C.3     1  UNL1        0.1120
     25 C         138.5407  145.0363  165.5824 C.3     1  UNL1        0.0278
     26 C         138.7576  142.9947  163.9902 C.ar    1  UNL1        0.0769
     27 C         139.7225  141.9882  164.5430 C.ar    1  UNL1        0.0187
     28 C         139.5213  140.5272  164.2693 C.ar    1  UNL1        0.0325
     29 C         138.3549  140.0727  163.4426 C.ar    1  UNL1        0.1592
     30 F         138.1537  138.6117  163.1689 F       1  UNL1       -0.2025
     31 C         137.3900  141.0793  162.8898 C.ar    1  UNL1        0.1280
     32 N         137.5913  142.5403  163.1636 N.ar    1  UNL1       -0.2442
@<TRIPOS>BOND
     1    16    17    1
     2    17    18   ar
     3    18    19   ar
     4    19    20   ar
     5    20    14    1
     6    14     1    1
     7     1     2   ar
     8     2     3   ar
     9     3     7    1
    10     7     8    1
    11     8     9    1
    12     9    10    1
    13    10    11    1
    14    10    12    1
    15    12    13    1
    16     3     4   ar
    17     4     5   ar
    18     5    22    1
    19    22    24    1
    20    24    25    1
    21    24    26    1
    22    26    27   ar
    23    27    28   ar
    24    28    29   ar
    25    29    30    1
    26    29    31   ar
    27    31    32   ar
    28     5     6   ar
    29    20    21   ar
    30    21    17   ar
    31     6     1   ar
    32    13     7    1
    33    32    26   ar
    34    14    15    1
    35    22    23    1
@<TRIPOS>MOLECULE
*****
 32 35 0 0 0
SMALL
GASTEIGER

@<TRIPOS>ATOM
      1 C         142.9088  138.4868  162.5483 C.ar    1  UNL1        0.1393
      2 C         142.8849  138.5102  161.0487 C.ar    1  UNL1        0.0689
      3 C         141.6146  138.1997  160.3139 C.ar    1  UNL1        0.1375
      4 N         140.3682  137.8658  161.0787 N.ar    1  UNL1       -0.1988
      5 C         140.3921  137.8424  162.5783 C.ar    1  UNL1        0.2194
      6 N         141.6624  138.1529  163.3131 N.ar    1  UNL1       -0.1986
      7 N         141.5907  138.2231  158.8142 N.pl3   1  UNL1       -0.2902
      8 C         142.6540  137.5064  158.0359 C.3     1  UNL1        0.1095
      9 C         142.6301  137.5297  156.5363 C.3     1  UNL1        0.0939
     10 N         141.5429  138.2698  155.8149 N.3     1  UNL1       -0.2686
     11 C         141.5190  138.2932  154.3153 C.3     1  UNL1        0.0897
     12 C         140.4796  138.9865  156.5932 C.3     1  UNL1        0.0939
     13 C         140.5035  138.9631  158.0929 C.3     1  UNL1        0.1095
     14 N         144.1791  138.7973  163.2831 N.pl3   1  UNL1       -0.2780
     15 H         144.7747  138.0667  163.5671 H       1  UNL1        0.1555
     16 C         144.4064  143.5397  165.5936 C.3     1  UNL1        0.0399
     17 C         144.6463  142.4009  164.6473 C.ar    1  UNL1        0.0293
     18 C         145.5541  142.4230  163.4533 C.ar    1  UNL1        0.1030
     19 N         145.4895  141.0758  162.7969 N.ar    1  UNL1       -0.2228
     20 C         144.5419  140.2210  163.5853 C.ar    1  UNL1        0.1643
     21 S         144.0208  141.0400  164.7289 S.2     1  UNL1       -0.0557
     22 N         139.1457  137.5084  163.3432 N.pl3   1  UNL1       -0.2994
     23 H         138.6614  136.6723  163.1543 H       1  UNL1        0.1499
     24 C         138.6371  138.4484  164.3956 C.3     1  UNL1        0.1120
     25 C         138.4394  137.9641  165.8015 C.3     1  UNL1        0.0278
     26 C         138.3263  139.8727  164.0423 C.ar    1  UNL1        0.0769
     27 C         138.4956  140.9540  165.0681 C.ar    1  UNL1        0.0187
     28 C         138.1848  142.3782  164.7149 C.ar    1  UNL1        0.0325
     29 C         137.7046  142.7213  163.3358 C.ar    1  UNL1        0.1592
     30 F         137.3938  144.1456  162.9825 F       1  UNL1       -0.2025
     31 C         137.5352  141.6400  162.3100 C.ar    1  UNL1        0.1280
     32 N         137.8461  140.2157  162.6633 N.ar    1  UNL1       -0.2442
@<TRIPOS>BOND
     1    16    17    1
     2    17    18   ar
     3    18    19   ar
     4    19    20   ar
     5    20    14    1
     6    14     1    1
     7     1     2   ar
     8     2     3   ar
     9     3     7    1
    10     7     8    1
    11     8     9    1
    12     9    10    1
    13    10    11    1
    14    10    12    1
    15    12    13    1
    16     3     4   ar
    17     4     5   ar
    18     5    22    1
    19    22    24    1
    20    24    25    1
    21    24    26    1
    22    26    27   ar
    23    27    28   ar
    24    28    29   ar
    25    29    30    1
    26    29    31   ar
    27    31    32   ar
    28     5     6   ar
    29    20    21   ar
    30    21    17   ar
    31     6     1   ar
    32    13     7    1
    33    32    26   ar
    34    14    15    1
    35    22    23    1
@<TRIPOS>MOLECULE
*****
 32 35 0 0 0
SMALL
GASTEIGER

@<TRIPOS>ATOM
      1 C         143.6985  140.2503  161.1704 C.ar    1  UNL1        0.1393
      2 C         143.5393  139.8679  162.6121 C.ar    1  UNL1        0.0689
      3 C         143.1590  140.9060  163.6257 C.ar    1  UNL1        0.1375
      4 N         142.9380  142.3266  163.1977 N.ar    1  UNL1       -0.1988
      5 C         143.0972  142.7090  161.7561 C.ar    1  UNL1        0.2194
      6 N         143.4775  141.6708  160.7424 N.ar    1  UNL1       -0.1986
      7 N         142.9997  140.5237  165.0674 N.pl3   1  UNL1       -0.2902
      8 C         143.3086  139.1244  165.5108 C.3     1  UNL1        0.1095
      9 C         143.1494  138.7420  166.9524 C.3     1  UNL1        0.0939
     10 N         142.6812  139.7589  167.9508 N.3     1  UNL1       -0.2686
     11 C         142.5220  139.3766  169.3925 C.3     1  UNL1        0.0897
     12 C         142.3723  141.1582  167.5075 C.3     1  UNL1        0.0939
     13 C         142.5316  141.5406  166.0658 C.3     1  UNL1        0.1095
     14 N         144.0788  139.2121  160.1567 N.pl3   1  UNL1       -0.2780
     15 H         144.9199  138.7104  160.2576 H       1  UNL1        0.1555
     16 C         139.8682  137.8601  157.2717 C.3     1  UNL1        0.0399
     17 C         141.2423  138.3169  157.6631 C.ar    1  UNL1        0.0293
     18 C         142.3398  138.7171  156.7222 C.ar    1  UNL1        0.1030
     19 N         143.5359  139.1012  157.5418 N.ar    1  UNL1       -0.2228
     20 C         143.1777  138.9383  158.9892 C.ar    1  UNL1        0.1643
     21 S         141.7602  138.4536  159.0642 S.2     1  UNL1       -0.0557
     22 N         142.8762  144.1295  161.3281 N.pl3   1  UNL1       -0.2994
     23 H         143.6390  144.7486  161.2636 H       1  UNL1        0.1499
     24 C         141.4929  144.6069  160.9985 C.3     1  UNL1        0.1120
     25 C         141.1944  145.1573  159.6354 C.3     1  UNL1        0.0278
     26 C         140.4082  144.5340  162.0319 C.ar    1  UNL1        0.0769
     27 C         140.6894  144.9509  163.4451 C.ar    1  UNL1        0.0187
     28 C         139.6047  144.8780  164.4786 C.ar    1  UNL1        0.0325
     29 C         138.2387  144.3882  164.0989 C.ar    1  UNL1        0.1592
     30 F         137.1540  144.3153  165.1323 F       1  UNL1       -0.2025
     31 C         137.9574  143.9713  162.6857 C.ar    1  UNL1        0.1280
     32 N         139.0422  144.0442  161.6522 N.ar    1  UNL1       -0.2442
@<TRIPOS>BOND
     1    16    17    1
     2    17    18   ar
     3    18    19   ar
     4    19    20   ar
     5    20    14    1
     6    14     1    1
     7     1     2   ar
     8     2     3   ar
     9     3     7    1
    10     7     8    1
    11     8     9    1
    12     9    10    1
    13    10    11    1
    14    10    12    1
    15    12    13    1
    16     3     4   ar
    17     4     5   ar
    18     5    22    1
    19    22    24    1
    20    24    25    1
    21    24    26    1
    22    26    27   ar
    23    27    28   ar
    24    28    29   ar
    25    29    30    1
    26    29    31   ar
    27    31    32   ar
    28     5     6   ar
    29    20    21   ar
    30    21    17   ar
    31     6     1   ar
    32    13     7    1
    33    32    26   ar
    34    14    15    1
    35    22    23    1
