@<TRIPOS>MOLECULE
*****
 36 40 0 0 0
SMALL
GASTEIGER

@<TRIPOS>ATOM
      1 N         138.9692  140.1454  161.9535 N.ar    1  UNL1       -0.2792
      2 C         139.8464  139.3859  162.9039 C.ar    1  UNL1        0.1472
      3 N         140.9617  138.5326  162.3764 N.ar    1  UNL1       -0.2248
      4 C         141.1996  138.4391  160.8984 C.ar    1  UNL1        0.1260
      5 C         142.2138  137.6845  160.0908 C.ar    1  UNL1        0.1212
      6 N         141.9633  137.9778  158.6413 N.ar    1  UNL1       -0.2264
      7 N         140.7943  138.9136  158.5529 N.ar    1  UNL1       -0.1586
      8 C         140.3224  139.1987  159.9479 C.ar    1  UNL1        0.1762
      9 C         139.2071  140.0519  160.4755 C.ar    1  UNL1        0.2829
     10 O         138.3298  140.8115  159.5250 O.2     1  UNL1       -0.2652
     11 C         139.6084  139.4794  164.3821 C.ar    1  UNL1        0.0478
     12 C         138.5759  138.6068  165.0322 C.ar    1  UNL1        0.0058
     13 C         138.3380  138.7004  166.5102 C.ar    1  UNL1        0.0208
     14 C         139.1324  139.6665  167.3381 C.ar    1  UNL1        0.0984
     15 N         140.1649  140.5391  166.6880 N.ar    1  UNL1       -0.2480
     16 C         140.4028  140.4455  165.2100 C.ar    1  UNL1        0.0623
     17 C         141.4353  141.3181  164.5597 C.3     1  UNL1        0.0522
     18 C         142.7446  137.4312  157.4833 C.ar    1  UNL1        0.0859
     19 C         143.3355  138.3655  156.4695 C.ar    1  UNL1        0.0194
     20 C         144.1168  137.8188  155.3115 C.ar    1  UNL1        0.0047
     21 C         144.3071  136.3380  155.1674 C.ar    1  UNL1        0.0370
     22 C         143.7162  135.4037  156.1813 C.ar    1  UNL1        0.1402
     23 C         142.9349  135.9504  157.3392 C.ar    1  UNL1        0.0560
     24 O         143.9065  133.9228  156.0372 O.3     1  UNL1       -0.4714
     25 C         142.9130  132.9766  156.6436 C.3     1  UNL1        0.2525
     26 C         137.8539  140.9986  162.4810 C.3     1  UNL1        0.1119
     27 N         139.1463  144.7459  162.6751 N.3     1  UNL1       -0.2705
     28 C         138.7290  145.1179  164.0670 C.3     1  UNL1        0.0722
     29 C         138.0198  144.1168  164.9302 C.3     1  UNL1        0.0174
     30 C         137.7282  142.7438  164.4016 C.3     1  UNL1        0.0048
     31 C         138.1455  142.3717  163.0097 C.3     1  UNL1        0.0388
     32 C         138.8546  143.3727  162.1465 C.3     1  UNL1        0.0741
     33 C         139.8554  145.7469  161.8119 C.3     1  UNL1        0.1046
     34 C         140.5308  145.3028  160.5485 C.3     1  UNL1        0.1595
     35 C         142.5037  143.9882  161.6114 C.3     1  UNL1        0.1742
     36 O         141.9836  144.9297  160.5658 O.3     1  UNL1       -0.3496
@<TRIPOS>BOND
     1    35    36    1
     2    36    34    1
     3    34    33    1
     4    33    27    1
     5    27    28    1
     6    28    29    1
     7    29    30    1
     8    30    31    1
     9    31    26    1
    10    26     1    1
    11     1     2   ar
    12     2    11    1
    13    11    12   ar
    14    12    13   ar
    15    13    14   ar
    16    14    15   ar
    17    15    16   ar
    18    16    17    1
    19     2     3   ar
    20     3     4   ar
    21     4     5   ar
    22     5     6   ar
    23     6    18    1
    24    18    19   ar
    25    19    20   ar
    26    20    21   ar
    27    21    22   ar
    28    22    24    1
    29    24    25    1
    30    22    23   ar
    31     6     7   ar
    32     7     8   ar
    33     8     9   ar
    34     9    10    2
    35    31    32    1
    36    32    27    1
    37     9     1   ar
    38    16    11   ar
    39     8     4   ar
    40    23    18   ar
@<TRIPOS>MOLECULE
*****
 36 40 0 0 0
SMALL
GASTEIGER

@<TRIPOS>ATOM
      1 N         140.0149  139.7286  163.4688 N.ar    1  UNL1       -0.2792
      2 C         140.0557  141.1104  162.8867 C.ar    1  UNL1        0.1472
      3 N         140.6208  141.3299  161.5146 N.ar    1  UNL1       -0.2248
      4 C         141.1450  140.1676  160.7247 C.ar    1  UNL1        0.1260
      5 C         141.7558  140.0769  159.3577 C.ar    1  UNL1        0.1212
      6 N         142.0924  138.6390  159.0949 N.ar    1  UNL1       -0.2264
      7 N         141.6897  137.8410  160.2995 N.ar    1  UNL1       -0.1586
      8 C         141.1042  138.7857  161.3068 C.ar    1  UNL1        0.1762
      9 C         140.5391  138.5662  162.6788 C.ar    1  UNL1        0.2829
     10 O         140.4983  137.1844  163.2609 O.2     1  UNL1       -0.2652
     11 C         139.5315  142.2728  163.6768 C.ar    1  UNL1        0.0478
     12 C         138.0808  142.6446  163.5911 C.ar    1  UNL1        0.0058
     13 C         137.5565  143.8070  164.3811 C.ar    1  UNL1        0.0208
     14 C         138.4830  144.5975  165.2567 C.ar    1  UNL1        0.0984
     15 N         139.9336  144.2258  165.3423 N.ar    1  UNL1       -0.2480
     16 C         140.4579  143.0634  164.5524 C.ar    1  UNL1        0.0623
     17 C         141.9086  142.6915  164.6379 C.3     1  UNL1        0.0522
     18 C         142.7213  138.0946  157.8466 C.ar    1  UNL1        0.0859
     19 C         143.2106  139.0322  156.7830 C.ar    1  UNL1        0.0194
     20 C         143.8395  138.4878  155.5347 C.ar    1  UNL1        0.0047
     21 C         143.9791  137.0057  155.3501 C.ar    1  UNL1        0.0370
     22 C         143.4898  136.0681  156.4138 C.ar    1  UNL1        0.1402
     23 C         142.8609  136.6126  157.6620 C.ar    1  UNL1        0.0560
     24 O         143.6293  134.5861  156.2293 O.3     1  UNL1       -0.4714
     25 C         143.9404  133.7098  157.4063 C.3     1  UNL1        0.2525
     26 C         139.4498  139.5090  164.8409 C.3     1  UNL1        0.1119
     27 N         140.6945  140.1875  168.5476 N.3     1  UNL1       -0.2705
     28 C         142.1305  139.7662  168.4460 C.3     1  UNL1        0.0722
     29 C         142.6730  139.2592  167.1426 C.3     1  UNL1        0.0174
     30 C         141.7794  139.1735  165.9409 C.3     1  UNL1        0.0048
     31 C         140.3433  139.5948  166.0425 C.3     1  UNL1        0.0388
     32 C         139.8009  140.1017  167.3459 C.3     1  UNL1        0.0741
     33 C         140.1521  140.6945  169.8510 C.3     1  UNL1        0.1046
     34 C         141.0815  140.9586  170.9982 C.3     1  UNL1        0.1595
     35 C         142.5886  142.9886  170.3999 C.3     1  UNL1        0.1742
     36 O         141.5498  142.3559  171.2778 O.3     1  UNL1       -0.3496
@<TRIPOS>BOND
     1    35    36    1
     2    36    34    1
     3    34    33    1
     4    33    27    1
     5    27    28    1
     6    28    29    1
     7    29    30    1
     8    30    31    1
     9    31    26    1
    10    26     1    1
    11     1     2   ar
    12     2    11    1
    13    11    12   ar
    14    12    13   ar
    15    13    14   ar
    16    14    15   ar
    17    15    16   ar
    18    16    17    1
    19     2     3   ar
    20     3     4   ar
    21     4     5   ar
    22     5     6   ar
    23     6    18    1
    24    18    19   ar
    25    19    20   ar
    26    20    21   ar
    27    21    22   ar
    28    22    24    1
    29    24    25    1
    30    22    23   ar
    31     6     7   ar
    32     7     8   ar
    33     8     9   ar
    34     9    10    2
    35    31    32    1
    36    32    27    1
    37     9     1   ar
    38    16    11   ar
    39     8     4   ar
    40    23    18   ar
@<TRIPOS>MOLECULE
*****
 36 40 0 0 0
SMALL
GASTEIGER

@<TRIPOS>ATOM
      1 N         140.9428  143.8161  162.4528 N.ar    1  UNL1       -0.2792
      2 C         142.2250  143.3112  161.8607 C.ar    1  UNL1        0.1472
      3 N         142.5933  143.6707  160.4517 N.ar    1  UNL1       -0.2248
      4 C         141.6792  144.5352  159.6349 C.ar    1  UNL1        0.1260
      5 C         141.7758  145.0512  158.2298 C.ar    1  UNL1        0.1212
      6 N         140.5532  145.8751  157.9536 N.ar    1  UNL1       -0.2264
      7 N         139.7010  145.8683  159.1880 N.ar    1  UNL1       -0.1586
      8 C         140.3969  145.0401  160.2271 C.ar    1  UNL1        0.1762
      9 C         140.0287  144.6806  161.6361 C.ar    1  UNL1        0.2829
     10 O         138.7464  145.1856  162.2283 O.2     1  UNL1       -0.2652
     11 C         143.1391  142.4466  162.6775 C.ar    1  UNL1        0.0478
     12 C         143.1278  140.9581  162.4920 C.ar    1  UNL1        0.0058
     13 C         144.0419  140.0936  163.3088 C.ar    1  UNL1        0.0208
     14 C         144.9672  140.7176  164.3110 C.ar    1  UNL1        0.0984
     15 N         144.9785  142.2060  164.4965 N.ar    1  UNL1       -0.2480
     16 C         144.0644  143.0705  163.6797 C.ar    1  UNL1        0.0623
     17 C         144.0757  144.5590  163.8651 C.3     1  UNL1        0.0522
     18 C         140.2380  146.5818  156.6686 C.ar    1  UNL1        0.0859
     19 C         140.8317  146.0952  155.3799 C.ar    1  UNL1        0.0194
     20 C         140.5165  146.8019  154.0949 C.ar    1  UNL1        0.0047
     21 C         139.6077  147.9953  154.0986 C.ar    1  UNL1        0.0370
     22 C         139.0141  148.4819  155.3873 C.ar    1  UNL1        0.1402
     23 C         139.3293  147.7751  156.6723 C.ar    1  UNL1        0.0560
     24 O         138.1053  149.6752  155.3910 O.3     1  UNL1       -0.4714
     25 C         138.5710  150.9706  155.9869 C.3     1  UNL1        0.2525
     26 C         140.5745  143.4566  163.8618 C.3     1  UNL1        0.1119
     27 N         138.4886  140.1292  163.2899 N.3     1  UNL1       -0.2705
     28 C         138.3437  139.6395  164.7003 C.3     1  UNL1        0.0722
     29 C         138.9425  140.4223  165.8312 C.3     1  UNL1        0.0174
     30 C         139.6860  141.6946  165.5518 C.3     1  UNL1        0.0048
     31 C         139.8309  142.1843  164.1413 C.3     1  UNL1        0.0388
     32 C         139.2322  141.4016  163.0105 C.3     1  UNL1        0.0741
     33 C         137.8898  139.3465  162.1591 C.3     1  UNL1        0.1046
     34 C         138.3149  137.9279  161.9211 C.3     1  UNL1        0.1595
     35 C         140.4772  138.6340  160.6657 C.3     1  UNL1        0.1742
     36 O         139.7168  137.6290  161.4793 O.3     1  UNL1       -0.3496
@<TRIPOS>BOND
     1    35    36    1
     2    36    34    1
     3    34    33    1
     4    33    27    1
     5    27    28    1
     6    28    29    1
     7    29    30    1
     8    30    31    1
     9    31    26    1
    10    26     1    1
    11     1     2   ar
    12     2    11    1
    13    11    12   ar
    14    12    13   ar
    15    13    14   ar
    16    14    15   ar
    17    15    16   ar
    18    16    17    1
    19     2     3   ar
    20     3     4   ar
    21     4     5   ar
    22     5     6   ar
    23     6    18    1
    24    18    19   ar
    25    19    20   ar
    26    20    21   ar
    27    21    22   ar
    28    22    24    1
    29    24    25    1
    30    22    23   ar
    31     6     7   ar
    32     7     8   ar
    33     8     9   ar
    34     9    10    2
    35    31    32    1
    36    32    27    1
    37     9     1   ar
    38    16    11   ar
    39     8     4   ar
    40    23    18   ar
@<TRIPOS>MOLECULE
*****
 36 40 0 0 0
SMALL
GASTEIGER

@<TRIPOS>ATOM
      1 N         140.8627  142.8454  161.5143 N.ar    1  UNL1       -0.2792
      2 C         142.3226  143.1062  161.2896 C.ar    1  UNL1        0.1472
      3 N         142.7609  144.0012  160.1684 N.ar    1  UNL1       -0.2248
      4 C         141.7391  144.6354  159.2719 C.ar    1  UNL1        0.1260
      5 C         141.8698  145.5556  158.0946 C.ar    1  UNL1        0.1212
      6 N         140.4906  145.8636  157.5917 N.ar    1  UNL1       -0.2264
      7 N         139.5075  145.1337  158.4582 N.ar    1  UNL1       -0.1586
      8 C         140.2791  144.3746  159.4966 C.ar    1  UNL1        0.1762
      9 C         139.8409  143.4796  160.6178 C.ar    1  UNL1        0.2829
     10 O         138.3810  143.2189  160.8425 O.2     1  UNL1       -0.2652
     11 C         143.3445  142.4719  162.1861 C.ar    1  UNL1        0.0478
     12 C         143.8211  141.0766  161.9106 C.ar    1  UNL1        0.0058
     13 C         144.8429  140.4423  162.8070 C.ar    1  UNL1        0.0208
     14 C         145.3881  141.2034  163.9790 C.ar    1  UNL1        0.0984
     15 N         144.9115  142.5988  164.2545 N.ar    1  UNL1       -0.2480
     16 C         143.8897  143.2330  163.3581 C.ar    1  UNL1        0.0623
     17 C         143.4130  144.6283  163.6335 C.3     1  UNL1        0.0522
     18 C         140.1536  146.7465  156.4268 C.ar    1  UNL1        0.0859
     19 C         140.7173  146.4454  155.0698 C.ar    1  UNL1        0.0194
     20 C         140.3803  147.3284  153.9049 C.ar    1  UNL1        0.0047
     21 C         139.4796  148.5123  154.0971 C.ar    1  UNL1        0.0370
     22 C         138.9158  148.8134  155.4541 C.ar    1  UNL1        0.1402
     23 C         139.2529  147.9304  156.6190 C.ar    1  UNL1        0.0560
     24 O         138.0151  149.9973  155.6463 O.3     1  UNL1       -0.4714
     25 C         138.5117  151.3767  155.3290 C.3     1  UNL1        0.2525
     26 C         140.4245  141.9504  162.6355 C.3     1  UNL1        0.1119
     27 N         140.7608  142.5615  166.5423 N.3     1  UNL1       -0.2705
     28 C         139.7553  143.6558  166.7456 C.3     1  UNL1        0.0722
     29 C         138.9728  144.1817  165.5788 C.3     1  UNL1        0.0174
     30 C         139.1959  143.6132  164.2089 C.3     1  UNL1        0.0048
     31 C         140.2014  142.5189  164.0055 C.3     1  UNL1        0.0388
     32 C         140.9839  141.9931  165.1722 C.3     1  UNL1        0.0741
     33 C         141.5433  142.0357  167.7090 C.3     1  UNL1        0.1046
     34 C         143.0354  142.1852  167.7400 C.3     1  UNL1        0.1595
     35 C         142.9149  142.8919  170.2372 C.3     1  UNL1        0.1742
     36 O         143.7169  142.6495  168.9929 O.3     1  UNL1       -0.3496
@<TRIPOS>BOND
     1    35    36    1
     2    36    34    1
     3    34    33    1
     4    33    27    1
     5    27    28    1
     6    28    29    1
     7    29    30    1
     8    30    31    1
     9    31    26    1
    10    26     1    1
    11     1     2   ar
    12     2    11    1
    13    11    12   ar
    14    12    13   ar
    15    13    14   ar
    16    14    15   ar
    17    15    16   ar
    18    16    17    1
    19     2     3   ar
    20     3     4   ar
    21     4     5   ar
    22     5     6   ar
    23     6    18    1
    24    18    19   ar
    25    19    20   ar
    26    20    21   ar
    27    21    22   ar
    28    22    24    1
    29    24    25    1
    30    22    23   ar
    31     6     7   ar
    32     7     8   ar
    33     8     9   ar
    34     9    10    2
    35    31    32    1
    36    32    27    1
    37     9     1   ar
    38    16    11   ar
    39     8     4   ar
    40    23    18   ar
@<TRIPOS>MOLECULE
*****
 36 40 0 0 0
SMALL
GASTEIGER

@<TRIPOS>ATOM
      1 N         142.3845  138.9849  164.3683 N.ar    1  UNL1       -0.2792
      2 C         140.9634  138.9961  163.8888 C.ar    1  UNL1        0.1472
      3 N         140.6629  139.2354  162.4387 N.ar    1  UNL1       -0.2248
      4 C         141.7837  139.4634  161.4683 C.ar    1  UNL1        0.1260
      5 C         141.7950  139.7235  159.9911 C.ar    1  UNL1        0.1212
      6 N         143.2232  139.8730  159.5577 N.ar    1  UNL1       -0.2264
      7 N         144.0946  139.7054  160.7670 N.ar    1  UNL1       -0.1586
      8 C         143.2049  139.4522  161.9479 C.ar    1  UNL1        0.1762
      9 C         143.5053  139.2130  163.3979 C.ar    1  UNL1        0.2829
     10 O         144.9266  139.2018  163.8775 O.2     1  UNL1       -0.2652
     11 C         139.8425  138.7681  164.8593 C.ar    1  UNL1        0.0478
     12 C         139.3627  137.3742  165.1369 C.ar    1  UNL1        0.0058
     13 C         138.2419  137.1461  166.1073 C.ar    1  UNL1        0.0208
     14 C         137.6009  138.3119  166.8001 C.ar    1  UNL1        0.0984
     15 N         138.0806  139.7057  166.5225 N.ar    1  UNL1       -0.2480
     16 C         139.2014  139.9338  165.5521 C.ar    1  UNL1        0.0623
     17 C         139.6813  141.3277  165.2744 C.3     1  UNL1        0.0522
     18 C         143.6969  140.1428  158.1602 C.ar    1  UNL1        0.0859
     19 C         144.5744  141.3269  157.8812 C.ar    1  UNL1        0.0194
     20 C         145.0481  141.5966  156.4837 C.ar    1  UNL1        0.0047
     21 C         144.6442  140.6823  155.3653 C.ar    1  UNL1        0.0370
     22 C         143.7666  139.4983  155.6443 C.ar    1  UNL1        0.1402
     23 C         143.2930  139.2285  157.0418 C.ar    1  UNL1        0.0560
     24 O         143.3627  138.5840  154.5259 O.3     1  UNL1       -0.4714
     25 C         142.6642  137.2915  154.8290 C.3     1  UNL1        0.2525
     26 C         142.6850  138.7457  165.8184 C.3     1  UNL1        0.1119
     27 N         142.6655  140.8549  169.1800 N.3     1  UNL1       -0.2705
     28 C         142.9863  142.2239  168.6575 C.3     1  UNL1        0.0722
     29 C         143.2068  142.4335  167.1886 C.3     1  UNL1        0.0174
     30 C         143.1063  141.2741  166.2423 C.3     1  UNL1        0.0048
     31 C         142.7855  139.9050  166.7647 C.3     1  UNL1        0.0388
     32 C         142.5651  139.6955  168.2335 C.3     1  UNL1        0.0741
     33 C         142.4451  140.6454  170.6488 C.3     1  UNL1        0.1046
     34 C         141.0639  140.7551  171.2231 C.3     1  UNL1        0.1595
     35 C         139.8357  142.9840  170.6997 C.3     1  UNL1        0.1742
     36 O         140.5423  142.0876  171.6730 O.3     1  UNL1       -0.3496
@<TRIPOS>BOND
     1    35    36    1
     2    36    34    1
     3    34    33    1
     4    33    27    1
     5    27    28    1
     6    28    29    1
     7    29    30    1
     8    30    31    1
     9    31    26    1
    10    26     1    1
    11     1     2   ar
    12     2    11    1
    13    11    12   ar
    14    12    13   ar
    15    13    14   ar
    16    14    15   ar
    17    15    16   ar
    18    16    17    1
    19     2     3   ar
    20     3     4   ar
    21     4     5   ar
    22     5     6   ar
    23     6    18    1
    24    18    19   ar
    25    19    20   ar
    26    20    21   ar
    27    21    22   ar
    28    22    24    1
    29    24    25    1
    30    22    23   ar
    31     6     7   ar
    32     7     8   ar
    33     8     9   ar
    34     9    10    2
    35    31    32    1
    36    32    27    1
    37     9     1   ar
    38    16    11   ar
    39     8     4   ar
    40    23    18   ar
@<TRIPOS>MOLECULE
*****
 36 40 0 0 0
SMALL
GASTEIGER

@<TRIPOS>ATOM
      1 N         141.3502  143.6912  162.6634 N.ar    1  UNL1       -0.2792
      2 C         142.4631  143.0098  161.9238 C.ar    1  UNL1        0.1472
      3 N         142.6768  143.2902  160.4658 N.ar    1  UNL1       -0.2248
      4 C         141.7774  144.2521  159.7475 C.ar    1  UNL1        0.1260
      5 C         141.7449  144.7237  158.3239 C.ar    1  UNL1        0.1212
      6 N         140.6118  145.6966  158.1838 N.ar    1  UNL1       -0.2264
      7 N         139.9441  145.8263  159.5207 N.ar    1  UNL1       -0.1586
      8 C         140.6645  144.9335  160.4871 C.ar    1  UNL1        0.1762
      9 C         140.4509  144.6531  161.9451 C.ar    1  UNL1        0.2829
     10 O         139.3380  145.3345  162.6848 O.2     1  UNL1       -0.2652
     11 C         143.3624  142.0479  162.6422 C.ar    1  UNL1        0.0478
     12 C         144.6074  142.5449  163.3153 C.ar    1  UNL1        0.0058
     13 C         145.5067  141.5830  164.0336 C.ar    1  UNL1        0.0208
     14 C         145.1610  140.1241  164.0789 C.ar    1  UNL1        0.0984
     15 N         143.9161  139.6271  163.4058 N.ar    1  UNL1       -0.2480
     16 C         143.0168  140.5889  162.6875 C.ar    1  UNL1        0.0623
     17 C         141.7717  140.0920  162.0144 C.3     1  UNL1        0.0522
     18 C         140.2159  146.4139  156.9273 C.ar    1  UNL1        0.0859
     19 C         140.7406  145.9489  155.6012 C.ar    1  UNL1        0.0194
     20 C         140.3446  146.6662  154.3447 C.ar    1  UNL1        0.0047
     21 C         139.4241  147.8485  154.4143 C.ar    1  UNL1        0.0370
     22 C         138.8994  148.3135  155.7404 C.ar    1  UNL1        0.1402
     23 C         139.2954  147.5961  156.9969 C.ar    1  UNL1        0.0560
     24 O         137.9789  149.4957  155.8101 O.3     1  UNL1       -0.4714
     25 C         138.5208  150.8806  155.6141 C.3     1  UNL1        0.2525
     26 C         141.1365  143.4108  164.1215 C.3     1  UNL1        0.1119
     27 N         139.3786  140.6122  166.3186 N.3     1  UNL1       -0.2705
     28 C         138.2796  140.1759  165.3956 C.3     1  UNL1        0.0722
     29 C         138.1330  140.8180  164.0478 C.3     1  UNL1        0.0174
     30 C         139.0852  141.8962  163.6231 C.3     1  UNL1        0.0048
     31 C         140.1843  142.3325  164.5461 C.3     1  UNL1        0.0388
     32 C         140.3309  141.6905  165.8938 C.3     1  UNL1        0.0741
     33 C         139.5252  139.9701  167.6663 C.3     1  UNL1        0.1046
     34 C         140.8217  140.0800  168.4123 C.3     1  UNL1        0.1595
     35 C         139.8220  141.8507  170.0296 C.3     1  UNL1        0.1742
     36 O         141.0140  141.1691  169.4257 O.3     1  UNL1       -0.3496
@<TRIPOS>BOND
     1    35    36    1
     2    36    34    1
     3    34    33    1
     4    33    27    1
     5    27    28    1
     6    28    29    1
     7    29    30    1
     8    30    31    1
     9    31    26    1
    10    26     1    1
    11     1     2   ar
    12     2    11    1
    13    11    12   ar
    14    12    13   ar
    15    13    14   ar
    16    14    15   ar
    17    15    16   ar
    18    16    17    1
    19     2     3   ar
    20     3     4   ar
    21     4     5   ar
    22     5     6   ar
    23     6    18    1
    24    18    19   ar
    25    19    20   ar
    26    20    21   ar
    27    21    22   ar
    28    22    24    1
    29    24    25    1
    30    22    23   ar
    31     6     7   ar
    32     7     8   ar
    33     8     9   ar
    34     9    10    2
    35    31    32    1
    36    32    27    1
    37     9     1   ar
    38    16    11   ar
    39     8     4   ar
    40    23    18   ar
@<TRIPOS>MOLECULE
*****
 36 40 0 0 0
SMALL
GASTEIGER

@<TRIPOS>ATOM
      1 N         139.8572  143.4407  162.5514 N.ar    1  UNL1       -0.2792
      2 C         139.8266  142.1158  161.8489 C.ar    1  UNL1        0.1472
      3 N         139.8830  142.0596  160.3510 N.ar    1  UNL1       -0.2248
      4 C         139.9700  143.3284  159.5556 C.ar    1  UNL1        0.1260
      5 C         140.0393  143.5847  158.0793 C.ar    1  UNL1        0.1212
      6 N         140.1128  145.0682  157.8695 N.ar    1  UNL1       -0.2264
      7 N         140.0889  145.7286  159.2161 N.ar    1  UNL1       -0.1586
      8 C         140.0006  144.6533  160.2582 C.ar    1  UNL1        0.1762
      9 C         139.9442  144.7095  161.7561 C.ar    1  UNL1        0.2829
     10 O         139.9748  146.0344  162.4586 O.2     1  UNL1       -0.2652
     11 C         139.7395  140.8469  162.6443 C.ar    1  UNL1        0.0478
     12 C         140.9736  140.0311  162.8923 C.ar    1  UNL1        0.0058
     13 C         140.8865  138.7623  163.6876 C.ar    1  UNL1        0.0208
     14 C         139.5655  138.3094  164.2350 C.ar    1  UNL1        0.0984
     15 N         138.3314  139.1252  163.9870 N.ar    1  UNL1       -0.2480
     16 C         138.4184  140.3940  163.1917 C.ar    1  UNL1        0.0623
     17 C         137.1844  141.2100  162.9436 C.3     1  UNL1        0.0522
     18 C         140.1956  145.7683  156.5455 C.ar    1  UNL1        0.0859
     19 C         140.9630  145.1480  155.4158 C.ar    1  UNL1        0.0194
     20 C         141.0457  145.8482  154.0918 C.ar    1  UNL1        0.0047
     21 C         140.3612  147.1687  153.8975 C.ar    1  UNL1        0.0370
     22 C         139.5938  147.7890  155.0273 C.ar    1  UNL1        0.1402
     23 C         139.5111  147.0888  156.3513 C.ar    1  UNL1        0.0560
     24 O         138.9093  149.1094  154.8331 O.3     1  UNL1       -0.4714
     25 C         138.4505  149.8985  156.0234 C.3     1  UNL1        0.2525
     26 C         139.8008  143.4969  164.0493 C.3     1  UNL1        0.1119
     27 N         143.5494  142.7662  165.1280 N.3     1  UNL1       -0.2705
     28 C         143.3414  142.1641  166.4860 C.3     1  UNL1        0.0722
     29 C         141.9531  142.0063  167.0318 C.3     1  UNL1        0.0174
     30 C         140.7729  142.4505  166.2196 C.3     1  UNL1        0.0048
     31 C         140.9809  143.0527  164.8615 C.3     1  UNL1        0.0388
     32 C         142.3692  143.2105  164.3158 C.3     1  UNL1        0.0741
     33 C         144.9377  142.9240  164.5822 C.3     1  UNL1        0.1046
     34 C         145.6347  141.7531  163.9555 C.3     1  UNL1        0.1595
     35 C         144.4798  140.5342  161.9729 C.3     1  UNL1        0.1742
     36 O         145.5049  141.5037  162.4821 O.3     1  UNL1       -0.3496
@<TRIPOS>BOND
     1    35    36    1
     2    36    34    1
     3    34    33    1
     4    33    27    1
     5    27    28    1
     6    28    29    1
     7    29    30    1
     8    30    31    1
     9    31    26    1
    10    26     1    1
    11     1     2   ar
    12     2    11    1
    13    11    12   ar
    14    12    13   ar
    15    13    14   ar
    16    14    15   ar
    17    15    16   ar
    18    16    17    1
    19     2     3   ar
    20     3     4   ar
    21     4     5   ar
    22     5     6   ar
    23     6    18    1
    24    18    19   ar
    25    19    20   ar
    26    20    21   ar
    27    21    22   ar
    28    22    24    1
    29    24    25    1
    30    22    23   ar
    31     6     7   ar
    32     7     8   ar
    33     8     9   ar
    34     9    10    2
    35    31    32    1
    36    32    27    1
    37     9     1   ar
    38    16    11   ar
    39     8     4   ar
    40    23    18   ar
@<TRIPOS>MOLECULE
*****
 36 40 0 0 0
SMALL
GASTEIGER

@<TRIPOS>ATOM
      1 N         142.2990  141.3605  162.5099 N.ar    1  UNL1       -0.2792
      2 C         140.8879  141.5067  162.0228 C.ar    1  UNL1        0.1472
      3 N         140.4307  140.7507  160.8106 N.ar    1  UNL1       -0.2248
      4 C         141.3847  139.8484  160.0855 C.ar    1  UNL1        0.1260
      5 C         141.2215  138.9831  158.8712 C.ar    1  UNL1        0.1212
      6 N         142.5317  138.3021  158.6078 N.ar    1  UNL1       -0.2264
      7 N         143.5048  138.7466  159.6593 N.ar    1  UNL1       -0.1586
      8 C         142.7959  139.7023  160.5726 C.ar    1  UNL1        0.1762
      9 C         143.2531  140.4583  161.7847 C.ar    1  UNL1        0.2829
     10 O         144.6642  140.3121  162.2718 O.2     1  UNL1       -0.2652
     11 C         139.9339  142.4090  162.7480 C.ar    1  UNL1        0.0478
     12 C         139.0473  141.8542  163.8233 C.ar    1  UNL1        0.0058
     13 C         138.0933  142.7564  164.5485 C.ar    1  UNL1        0.0208
     14 C         138.0258  144.2134  164.1983 C.ar    1  UNL1        0.0984
     15 N         138.9124  144.7682  163.1230 N.ar    1  UNL1       -0.2480
     16 C         139.8664  143.8660  162.3979 C.ar    1  UNL1        0.0623
     17 C         140.7530  144.4207  161.3226 C.3     1  UNL1        0.0522
     18 C         142.8186  137.3447  157.4893 C.ar    1  UNL1        0.0859
     19 C         142.9229  137.8474  156.0799 C.ar    1  UNL1        0.0194
     20 C         143.2098  136.8899  154.9614 C.ar    1  UNL1        0.0047
     21 C         143.3924  135.4298  155.2523 C.ar    1  UNL1        0.0370
     22 C         143.2882  134.9271  156.6617 C.ar    1  UNL1        0.1402
     23 C         143.0013  135.8846  157.7801 C.ar    1  UNL1        0.0560
     24 O         143.4708  133.4670  156.9526 O.3     1  UNL1       -0.4714
     25 C         144.6030  133.0120  157.8250 C.3     1  UNL1        0.2525
     26 C         142.7563  142.1166  163.7221 C.3     1  UNL1        0.1119
     27 N         142.9411  141.6458  167.6584 N.3     1  UNL1       -0.2705
     28 C         142.3606  140.2707  167.8069 C.3     1  UNL1        0.0722
     29 C         141.9119  139.5109  166.5938 C.3     1  UNL1        0.0174
     30 C         142.0438  140.1261  165.2323 C.3     1  UNL1        0.0048
     31 C         142.6244  141.5013  165.0836 C.3     1  UNL1        0.0388
     32 C         143.0730  142.2611  166.2967 C.3     1  UNL1        0.0741
     33 C         143.3897  142.4056  168.8714 C.3     1  UNL1        0.1046
     34 C         142.6121  142.3041  170.1500 C.3     1  UNL1        0.1595
     35 C         140.4029  143.5406  169.5662 C.3     1  UNL1        0.1742
     36 O         141.5742  143.3353  170.4805 O.3     1  UNL1       -0.3496
@<TRIPOS>BOND
     1    35    36    1
     2    36    34    1
     3    34    33    1
     4    33    27    1
     5    27    28    1
     6    28    29    1
     7    29    30    1
     8    30    31    1
     9    31    26    1
    10    26     1    1
    11     1     2   ar
    12     2    11    1
    13    11    12   ar
    14    12    13   ar
    15    13    14   ar
    16    14    15   ar
    17    15    16   ar
    18    16    17    1
    19     2     3   ar
    20     3     4   ar
    21     4     5   ar
    22     5     6   ar
    23     6    18    1
    24    18    19   ar
    25    19    20   ar
    26    20    21   ar
    27    21    22   ar
    28    22    24    1
    29    24    25    1
    30    22    23   ar
    31     6     7   ar
    32     7     8   ar
    33     8     9   ar
    34     9    10    2
    35    31    32    1
    36    32    27    1
    37     9     1   ar
    38    16    11   ar
    39     8     4   ar
    40    23    18   ar
@<TRIPOS>MOLECULE
*****
 36 40 0 0 0
SMALL
GASTEIGER

@<TRIPOS>ATOM
      1 N         141.5721  140.8179  162.4700 N.ar    1  UNL1       -0.2792
      2 C         140.9713  141.6842  161.4031 C.ar    1  UNL1        0.1472
      3 N         140.9868  141.2321  159.9729 N.ar    1  UNL1       -0.2248
      4 C         141.6030  139.9136  159.6098 C.ar    1  UNL1        0.1260
      5 C         141.7642  139.2092  158.2953 C.ar    1  UNL1        0.1212
      6 N         142.4647  137.9074  158.5500 N.ar    1  UNL1       -0.2264
      7 N         142.7363  137.8074  160.0218 N.ar    1  UNL1       -0.1586
      8 C         142.2038  139.0473  160.6768 C.ar    1  UNL1        0.1762
      9 C         142.1883  139.4994  162.1069 C.ar    1  UNL1        0.2829
     10 O         142.7891  138.6331  163.1740 O.2     1  UNL1       -0.2652
     11 C         140.3550  143.0027  161.7663 C.ar    1  UNL1        0.0478
     12 C         141.2252  144.2087  161.9623 C.ar    1  UNL1        0.0058
     13 C         140.6090  145.5272  162.3255 C.ar    1  UNL1        0.0208
     14 C         139.1226  145.6396  162.4925 C.ar    1  UNL1        0.0984
     15 N         138.2524  144.4337  162.2965 N.ar    1  UNL1       -0.2480
     16 C         138.8686  143.1152  161.9333 C.ar    1  UNL1        0.0623
     17 C         137.9985  141.9092  161.7372 C.3     1  UNL1        0.0522
     18 C         142.8294  136.8852  157.5147 C.ar    1  UNL1        0.0859
     19 C         142.9519  137.2868  156.0747 C.ar    1  UNL1        0.0194
     20 C         143.3167  136.2645  155.0393 C.ar    1  UNL1        0.0047
     21 C         143.5589  134.8405  155.4440 C.ar    1  UNL1        0.0370
     22 C         143.4363  134.4389  156.8840 C.ar    1  UNL1        0.1402
     23 C         143.0716  135.4612  157.9193 C.ar    1  UNL1        0.0560
     24 O         143.6785  133.0150  157.2888 O.3     1  UNL1       -0.4714
     25 C         144.9778  132.6286  157.9311 C.3     1  UNL1        0.2525
     26 C         141.5566  141.2700  163.9003 C.3     1  UNL1        0.1119
     27 N         139.9484  140.0459  167.3157 N.3     1  UNL1       -0.2705
     28 C         138.6884  139.4001  166.8204 C.3     1  UNL1        0.0722
     29 C         138.3845  139.3776  165.3515 C.3     1  UNL1        0.0174
     30 C         139.3406  140.0009  164.3782 C.3     1  UNL1        0.0048
     31 C         140.6006  140.6467  164.8736 C.3     1  UNL1        0.0388
     32 C         140.9045  140.6692  166.3423 C.3     1  UNL1        0.0741
     33 C         140.2523  140.0684  168.7844 C.3     1  UNL1        0.1046
     34 C         139.1485  140.2909  169.7754 C.3     1  UNL1        0.1595
     35 C         140.0820  142.6221  170.4417 C.3     1  UNL1        0.1742
     36 O         138.9415  141.6501  170.3750 O.3     1  UNL1       -0.3496
@<TRIPOS>BOND
     1    35    36    1
     2    36    34    1
     3    34    33    1
     4    33    27    1
     5    27    28    1
     6    28    29    1
     7    29    30    1
     8    30    31    1
     9    31    26    1
    10    26     1    1
    11     1     2   ar
    12     2    11    1
    13    11    12   ar
    14    12    13   ar
    15    13    14   ar
    16    14    15   ar
    17    15    16   ar
    18    16    17    1
    19     2     3   ar
    20     3     4   ar
    21     4     5   ar
    22     5     6   ar
    23     6    18    1
    24    18    19   ar
    25    19    20   ar
    26    20    21   ar
    27    21    22   ar
    28    22    24    1
    29    24    25    1
    30    22    23   ar
    31     6     7   ar
    32     7     8   ar
    33     8     9   ar
    34     9    10    2
    35    31    32    1
    36    32    27    1
    37     9     1   ar
    38    16    11   ar
    39     8     4   ar
    40    23    18   ar
