@<TRIPOS>MOLECULE
*****
 32 35 0 0 0
SMALL
GASTEIGER

@<TRIPOS>ATOM
      1 C         141.5506  139.4912  167.1947 C.3     1  UNL1        0.0841
      2 C         142.6186  139.3294  168.2355 C.3     1  UNL1        0.0095
      3 C         142.3062  139.5956  169.6783 C.3     1  UNL1        0.0005
      4 C         140.9259  140.0236  170.0803 C.3     1  UNL1        0.0005
      5 C         139.8579  140.1854  169.0395 C.3     1  UNL1        0.0082
      6 C         140.1703  139.9192  167.5967 C.3     1  UNL1        0.0705
      7 N         142.6823  140.2073  164.9684 N.am    1  UNL1       -0.2692
      8 C         141.8629  139.2251  165.7520 C.2     1  UNL1        0.2271
      9 O         141.3559  137.9767  165.0927 O.2     1  UNL1       -0.2747
     10 H         143.0150  141.0266  165.4010 H       1  UNL1        0.1563
     11 C         142.9348  140.6833  161.0365 C.ar    1  UNL1        0.2293
     12 C         142.6226  140.9495  162.4793 C.ar    1  UNL1        0.0921
     13 C         142.9946  139.9411  163.5256 C.ar    1  UNL1        0.1406
     14 N         143.6789  138.6665  163.1291 N.ar    1  UNL1       -0.2087
     15 C         143.9912  138.4004  161.6863 C.ar    1  UNL1        0.2027
     16 N         143.6191  139.4088  160.6400 N.ar    1  UNL1       -0.1892
     17 C         143.5228  142.7859  159.6281 C.3     1  UNL1        0.2542
     18 O         142.5628  141.6917  159.9902 O.3     1  UNL1       -0.4560
     19 C         139.1023  140.0810  166.5559 C.2     1  UNL1        0.1731
     20 O         137.9048  139.1777  166.5634 O.2     1  UNL1       -0.2913
     21 C         139.2318  141.1461  165.5077 C.ar    1  UNL1        0.0347
     22 C         138.6456  140.9313  164.1438 C.ar    1  UNL1        0.0029
     23 C         138.7751  141.9963  163.0955 C.ar    1  UNL1        0.0016
     24 C         139.4908  143.2763  163.4112 C.ar    1  UNL1        0.0171
     25 C         140.0770  143.4911  164.7751 C.ar    1  UNL1        0.0016
     26 C         139.9475  142.4260  165.8234 C.ar    1  UNL1        0.0029
     27 C         139.6204  144.3413  162.3630 C.ar    1  UNL1        0.0754
     28 C         140.6548  144.3892  161.2778 C.ar    1  UNL1        0.0409
     29 C         140.4120  145.6230  160.4600 C.ar    1  UNL1        0.1214
     30 N         139.2273  146.3376  161.0398 N.ar    1  UNL1       -0.1711
     31 N         138.7381  145.5455  162.2158 N.ar    1  UNL1       -0.2757
     32 H         137.9724  145.7755  162.7903 H       1  UNL1        0.1889
@<TRIPOS>BOND
     1    17    18    1
     2    18    11    1
     3    11    12   ar
     4    12    13   ar
     5    13     7    1
     6     7     8   am
     7     8     9    2
     8     1     8    1
     9     1     2    1
    10     2     3    1
    11     3     4    1
    12     4     5    1
    13     5     6    1
    14     6    19    1
    15    19    20    2
    16    19    21    1
    17    21    22   ar
    18    22    23   ar
    19    23    24   ar
    20    24    27    1
    21    27    28   ar
    22    28    29   ar
    23    29    30   ar
    24    30    31   ar
    25    24    25   ar
    26    25    26   ar
    27    13    14   ar
    28    14    15   ar
    29    15    16   ar
    30    16    11   ar
    31     6     1    1
    32    26    21   ar
    33    31    27   ar
    34     7    10    1
    35    31    32    1
@<TRIPOS>MOLECULE
*****
 32 35 0 0 0
SMALL
GASTEIGER

@<TRIPOS>ATOM
      1 C         141.9118  140.3541  168.2316 C.3     1  UNL1        0.0841
      2 C         142.7432  140.5331  169.4672 C.3     1  UNL1        0.0095
      3 C         142.0778  140.7114  170.7996 C.3     1  UNL1        0.0005
      4 C         140.5809  140.7107  170.8965 C.3     1  UNL1        0.0005
      5 C         139.7495  140.5318  169.6609 C.3     1  UNL1        0.0082
      6 C         140.4149  140.3535  168.3285 C.3     1  UNL1        0.0705
      7 N         143.0073  141.3761  166.1090 N.am    1  UNL1       -0.2692
      8 C         142.5772  140.1758  166.8991 C.2     1  UNL1        0.2271
      9 O         142.8124  138.7972  166.3568 O.2     1  UNL1       -0.2747
     10 H         142.8529  142.2809  166.4650 H       1  UNL1        0.1563
     11 C         143.7174  140.1285  162.4091 C.ar    1  UNL1        0.2293
     12 C         143.0521  140.3069  163.7415 C.ar    1  UNL1        0.0921
     13 C         143.6727  141.1978  164.7765 C.ar    1  UNL1        0.1406
     14 N         144.9587  141.9102  164.4790 N.ar    1  UNL1       -0.2087
     15 C         145.6241  141.7319  163.1466 C.ar    1  UNL1        0.2027
     16 N         145.0034  140.8410  162.1116 N.ar    1  UNL1       -0.1892
     17 C         142.2970  138.0411  161.7967 C.3     1  UNL1        0.2542
     18 O         143.0968  139.2377  161.3741 O.3     1  UNL1       -0.4560
     19 C         139.5834  140.1746  167.0929 C.2     1  UNL1        0.1731
     20 O         138.6904  138.9770  166.9567 O.2     1  UNL1       -0.2913
     21 C         139.6449  141.1931  165.9935 C.ar    1  UNL1        0.0347
     22 C         139.8345  142.6437  166.3248 C.ar    1  UNL1        0.0029
     23 C         139.8961  143.6623  165.2253 C.ar    1  UNL1        0.0016
     24 C         139.7680  143.2303  163.7946 C.ar    1  UNL1        0.0171
     25 C         139.5784  141.7796  163.4634 C.ar    1  UNL1        0.0016
     26 C         139.5169  140.7611  164.5628 C.ar    1  UNL1        0.0029
     27 C         139.8295  144.2488  162.6952 C.ar    1  UNL1        0.0754
     28 C         140.9151  144.3723  161.6675 C.ar    1  UNL1        0.0409
     29 C         140.5728  145.5225  160.7676 C.ar    1  UNL1        0.1214
     30 N         139.2756  146.1099  161.2392 N.ar    1  UNL1       -0.1711
     31 N         138.8163  145.3227  162.4306 N.ar    1  UNL1       -0.2757
     32 H         137.9941  145.4828  162.9479 H       1  UNL1        0.1889
@<TRIPOS>BOND
     1    17    18    1
     2    18    11    1
     3    11    12   ar
     4    12    13   ar
     5    13     7    1
     6     7     8   am
     7     8     9    2
     8     1     8    1
     9     1     2    1
    10     2     3    1
    11     3     4    1
    12     4     5    1
    13     5     6    1
    14     6    19    1
    15    19    20    2
    16    19    21    1
    17    21    22   ar
    18    22    23   ar
    19    23    24   ar
    20    24    27    1
    21    27    28   ar
    22    28    29   ar
    23    29    30   ar
    24    30    31   ar
    25    24    25   ar
    26    25    26   ar
    27    13    14   ar
    28    14    15   ar
    29    15    16   ar
    30    16    11   ar
    31     6     1    1
    32    26    21   ar
    33    31    27   ar
    34     7    10    1
    35    31    32    1
@<TRIPOS>MOLECULE
*****
 32 35 0 0 0
SMALL
GASTEIGER

@<TRIPOS>ATOM
      1 C         140.9182  142.1077  168.3016 C.3     1  UNL1        0.0841
      2 C         141.5789  143.0237  169.2887 C.3     1  UNL1        0.0095
      3 C         141.7860  142.5759  170.7053 C.3     1  UNL1        0.0005
      4 C         141.3324  141.2122  171.1347 C.3     1  UNL1        0.0005
      5 C         140.6718  140.2961  170.1476 C.3     1  UNL1        0.0082
      6 C         140.4647  140.7438  168.7310 C.3     1  UNL1        0.0705
      7 N         139.3564  143.0154  166.4343 N.am    1  UNL1       -0.2692
      8 C         140.7111  142.5554  166.8850 C.2     1  UNL1        0.2271
      9 O         141.8588  142.5431  165.9192 O.2     1  UNL1       -0.2747
     10 H         138.6032  143.0235  167.0682 H       1  UNL1        0.1563
     11 C         138.2023  143.0314  162.6372 C.ar    1  UNL1        0.2293
     12 C         138.4093  142.5838  164.0538 C.ar    1  UNL1        0.0921
     13 C         139.1494  143.4631  165.0177 C.ar    1  UNL1        0.1406
     14 N         139.6824  144.7901  164.5650 N.ar    1  UNL1       -0.2087
     15 C         139.4753  145.2378  163.1485 C.ar    1  UNL1        0.2027
     16 N         138.7352  144.3584  162.1846 N.ar    1  UNL1       -0.1892
     17 C         137.7386  140.6782  161.6385 C.3     1  UNL1        0.2542
     18 O         137.4622  142.1521  161.6733 O.3     1  UNL1       -0.4560
     19 C         139.8040  139.8278  167.7439 C.2     1  UNL1        0.1731
     20 O         138.4478  139.2591  168.0397 O.2     1  UNL1       -0.2913
     21 C         140.4994  139.4805  166.4611 C.ar    1  UNL1        0.0347
     22 C         141.9624  139.1494  166.4669 C.ar    1  UNL1        0.0029
     23 C         142.6579  138.8021  165.1840 C.ar    1  UNL1        0.0016
     24 C         141.8904  138.7859  163.8954 C.ar    1  UNL1        0.0171
     25 C         140.4274  139.1171  163.8896 C.ar    1  UNL1        0.0016
     26 C         139.7319  139.4644  165.1724 C.ar    1  UNL1        0.0029
     27 C         142.5858  138.4386  162.6125 C.ar    1  UNL1        0.0754
     28 C         143.8549  139.0549  162.1027 C.ar    1  UNL1        0.0409
     29 C         144.1877  138.4112  160.7894 C.ar    1  UNL1        0.1214
     30 N         143.1243  137.3972  160.4875 N.ar    1  UNL1       -0.1711
     31 N         142.1344  137.4142  161.6143 N.ar    1  UNL1       -0.2757
     32 H         141.3296  136.8517  161.6860 H       1  UNL1        0.1889
@<TRIPOS>BOND
     1    17    18    1
     2    18    11    1
     3    11    12   ar
     4    12    13   ar
     5    13     7    1
     6     7     8   am
     7     8     9    2
     8     1     8    1
     9     1     2    1
    10     2     3    1
    11     3     4    1
    12     4     5    1
    13     5     6    1
    14     6    19    1
    15    19    20    2
    16    19    21    1
    17    21    22   ar
    18    22    23   ar
    19    23    24   ar
    20    24    27    1
    21    27    28   ar
    22    28    29   ar
    23    29    30   ar
    24    30    31   ar
    25    24    25   ar
    26    25    26   ar
    27    13    14   ar
    28    14    15   ar
    29    15    16   ar
    30    16    11   ar
    31     6     1    1
    32    26    21   ar
    33    31    27   ar
    34     7    10    1
    35    31    32    1
@<TRIPOS>MOLECULE
*****
 32 35 0 0 0
SMALL
GASTEIGER

@<TRIPOS>ATOM
      1 C         140.9746  142.0400  168.0665 C.3     1  UNL1        0.0841
      2 C         140.4175  143.1108  168.9570 C.3     1  UNL1        0.0095
      3 C         141.2384  143.6429  170.0942 C.3     1  UNL1        0.0005
      4 C         142.6164  143.1042  170.3408 C.3     1  UNL1        0.0005
      5 C         143.1736  142.0334  169.4503 C.3     1  UNL1        0.0082
      6 C         142.3527  141.5013  168.3132 C.3     1  UNL1        0.0705
      7 N         140.1188  142.2419  165.6218 N.am    1  UNL1       -0.2692
      8 C         140.1538  141.5079  166.9295 C.2     1  UNL1        0.2271
      9 O         139.3679  140.2416  167.1000 O.2     1  UNL1       -0.2747
     10 H         140.6346  143.0730  165.5099 H       1  UNL1        0.1563
     11 C         139.0375  140.1128  162.4520 C.ar    1  UNL1        0.2293
     12 C         139.8583  140.6450  163.5891 C.ar    1  UNL1        0.0921
     13 C         139.2979  141.7098  164.4847 C.ar    1  UNL1        0.1406
     14 N         137.9166  142.2424  164.2432 N.ar    1  UNL1       -0.2087
     15 C         137.0958  141.7102  163.1062 C.ar    1  UNL1        0.2027
     16 N         137.6563  140.6454  162.2106 N.ar    1  UNL1       -0.1892
     17 C         140.2945  137.8593  162.1495 C.3     1  UNL1        0.2542
     18 O         139.5980  139.0480  161.5564 O.3     1  UNL1       -0.4560
     19 C         142.9099  140.4306  167.4227 C.2     1  UNL1        0.1731
     20 O         143.1562  139.0549  167.9676 O.2     1  UNL1       -0.2913
     21 C         143.2208  140.7354  165.9873 C.ar    1  UNL1        0.0347
     22 C         143.1398  139.6497  164.9555 C.ar    1  UNL1        0.0029
     23 C         143.4506  139.9545  163.5200 C.ar    1  UNL1        0.0016
     24 C         143.8425  141.3451  163.1164 C.ar    1  UNL1        0.0171
     25 C         143.9235  142.4308  164.1483 C.ar    1  UNL1        0.0016
     26 C         143.6127  142.1259  165.5837 C.ar    1  UNL1        0.0029
     27 C         144.1534  141.6499  161.6810 C.ar    1  UNL1        0.0754
     28 C         143.5287  140.9944  160.4852 C.ar    1  UNL1        0.0409
     29 C         144.1327  141.6031  159.2545 C.ar    1  UNL1        0.1214
     30 N         145.1308  142.6349  159.6898 N.ar    1  UNL1       -0.1711
     31 N         145.1435  142.6638  161.1895 N.ar    1  UNL1       -0.2757
     32 H         145.7034  143.2460  161.7523 H       1  UNL1        0.1889
@<TRIPOS>BOND
     1    17    18    1
     2    18    11    1
     3    11    12   ar
     4    12    13   ar
     5    13     7    1
     6     7     8   am
     7     8     9    2
     8     1     8    1
     9     1     2    1
    10     2     3    1
    11     3     4    1
    12     4     5    1
    13     5     6    1
    14     6    19    1
    15    19    20    2
    16    19    21    1
    17    21    22   ar
    18    22    23   ar
    19    23    24   ar
    20    24    27    1
    21    27    28   ar
    22    28    29   ar
    23    29    30   ar
    24    30    31   ar
    25    24    25   ar
    26    25    26   ar
    27    13    14   ar
    28    14    15   ar
    29    15    16   ar
    30    16    11   ar
    31     6     1    1
    32    26    21   ar
    33    31    27   ar
    34     7    10    1
    35    31    32    1
@<TRIPOS>MOLECULE
*****
 32 35 0 0 0
SMALL
GASTEIGER

@<TRIPOS>ATOM
      1 C         141.4463  141.9756  168.1734 C.3     1  UNL1        0.0841
      2 C         140.6863  142.9562  169.0165 C.3     1  UNL1        0.0095
      3 C         139.7929  142.4650  170.1169 C.3     1  UNL1        0.0005
      4 C         139.6595  140.9933  170.3740 C.3     1  UNL1        0.0005
      5 C         140.4194  140.0127  169.5308 C.3     1  UNL1        0.0082
      6 C         141.3128  140.5038  168.4305 C.3     1  UNL1        0.0705
      7 N         141.7846  142.6826  165.6964 N.am    1  UNL1       -0.2692
      8 C         142.3396  142.4667  167.0731 C.2     1  UNL1        0.2271
      9 O         143.7881  142.7419  167.3495 O.2     1  UNL1       -0.2747
     10 H         140.8340  142.5020  165.5149 H       1  UNL1        0.1563
     11 C         144.3735  142.6876  162.6884 C.ar    1  UNL1        0.2293
     12 C         143.4801  142.1966  163.7887 C.ar    1  UNL1        0.0921
     13 C         142.6781  143.1738  164.5961 C.ar    1  UNL1        0.1406
     14 N         142.7695  144.6420  164.3032 N.ar    1  UNL1       -0.2087
     15 C         143.6629  145.1331  163.2030 C.ar    1  UNL1        0.2027
     16 N         144.4649  144.1559  162.3956 N.ar    1  UNL1       -0.1892
     17 C         144.5665  140.4051  161.4626 C.3     1  UNL1        0.2542
     18 O         145.1755  141.7105  161.8810 O.3     1  UNL1       -0.4560
     19 C         142.0727  139.5232  167.5874 C.2     1  UNL1        0.1731
     20 O         143.2218  138.7599  168.1765 O.2     1  UNL1       -0.2913
     21 C         141.6835  139.3058  166.1552 C.ar    1  UNL1        0.0347
     22 C         140.2694  139.5474  165.7173 C.ar    1  UNL1        0.0029
     23 C         139.8801  139.3300  164.2851 C.ar    1  UNL1        0.0016
     24 C         140.9051  138.8710  163.2907 C.ar    1  UNL1        0.0171
     25 C         142.3193  138.6294  163.7286 C.ar    1  UNL1        0.0016
     26 C         142.7085  138.8468  165.1608 C.ar    1  UNL1        0.0029
     27 C         140.5159  138.6536  161.8585 C.ar    1  UNL1        0.0754
     28 C         141.4213  138.7824  160.6695 C.ar    1  UNL1        0.0409
     29 C         140.6180  138.4776  159.4400 C.ar    1  UNL1        0.1214
     30 N         139.2160  138.1605  159.8691 N.ar    1  UNL1       -0.1711
     31 N         139.1530  138.2693  161.3639 N.ar    1  UNL1       -0.2757
     32 H         138.3568  138.1154  161.9222 H       1  UNL1        0.1889
@<TRIPOS>BOND
     1    17    18    1
     2    18    11    1
     3    11    12   ar
     4    12    13   ar
     5    13     7    1
     6     7     8   am
     7     8     9    2
     8     1     8    1
     9     1     2    1
    10     2     3    1
    11     3     4    1
    12     4     5    1
    13     5     6    1
    14     6    19    1
    15    19    20    2
    16    19    21    1
    17    21    22   ar
    18    22    23   ar
    19    23    24   ar
    20    24    27    1
    21    27    28   ar
    22    28    29   ar
    23    29    30   ar
    24    30    31   ar
    25    24    25   ar
    26    25    26   ar
    27    13    14   ar
    28    14    15   ar
    29    15    16   ar
    30    16    11   ar
    31     6     1    1
    32    26    21   ar
    33    31    27   ar
    34     7    10    1
    35    31    32    1
@<TRIPOS>MOLECULE
*****
 32 35 0 0 0
SMALL
GASTEIGER

@<TRIPOS>ATOM
      1 C         139.6915  138.3180  165.5925 C.3     1  UNL1        0.0841
      2 C         138.7965  137.1144  165.5844 C.3     1  UNL1        0.0095
      3 C         137.6106  137.0554  166.5010 C.3     1  UNL1        0.0005
      4 C         137.3197  138.2000  167.4257 C.3     1  UNL1        0.0005
      5 C         138.2148  139.4037  167.4339 C.3     1  UNL1        0.0082
      6 C         139.4007  139.4627  166.5173 C.3     1  UNL1        0.0705
      7 N         140.7108  138.8547  163.2638 N.am    1  UNL1       -0.2692
      8 C         140.8774  138.3771  164.6759 C.2     1  UNL1        0.2271
      9 O         142.2299  137.9584  165.1714 O.2     1  UNL1       -0.2747
     10 H         139.8232  139.1295  162.9385 H       1  UNL1        0.1563
     11 C         144.1000  140.0636  161.5897 C.ar    1  UNL1        0.2293
     12 C         142.9141  140.0045  162.5063 C.ar    1  UNL1        0.0921
     13 C         141.8968  138.9137  162.3472 C.ar    1  UNL1        0.1406
     14 N         142.0655  137.8820  161.2716 N.ar    1  UNL1       -0.2087
     15 C         143.2514  137.9410  160.3550 C.ar    1  UNL1        0.2027
     16 N         144.2686  139.0318  160.5141 N.ar    1  UNL1       -0.1892
     17 C         145.4897  141.6386  163.1188 C.3     1  UNL1        0.2542
     18 O         145.1173  141.1544  161.7488 O.3     1  UNL1       -0.4560
     19 C         140.2957  140.6664  166.5254 C.2     1  UNL1        0.1731
     20 O         141.2602  140.8762  167.6549 O.2     1  UNL1       -0.2913
     21 C         140.2263  141.6602  165.4041 C.ar    1  UNL1        0.0347
     22 C         141.4571  142.4111  164.9901 C.ar    1  UNL1        0.0029
     23 C         141.3877  143.4050  163.8688 C.ar    1  UNL1        0.0016
     24 C         140.0875  143.6480  163.1614 C.ar    1  UNL1        0.0171
     25 C         138.8566  142.8971  163.5754 C.ar    1  UNL1        0.0016
     26 C         138.9261  141.9033  164.6967 C.ar    1  UNL1        0.0029
     27 C         140.0180  144.6418  162.0400 C.ar    1  UNL1        0.0754
     28 C         140.7316  144.5383  160.7247 C.ar    1  UNL1        0.0409
     29 C         140.3774  145.7462  159.9089 C.ar    1  UNL1        0.1214
     30 N         139.4450  146.5962  160.7201 N.ar    1  UNL1       -0.1711
     31 N         139.2229  145.9137  162.0372 N.ar    1  UNL1       -0.2757
     32 H         138.6549  146.2427  162.7710 H       1  UNL1        0.1889
@<TRIPOS>BOND
     1    17    18    1
     2    18    11    1
     3    11    12   ar
     4    12    13   ar
     5    13     7    1
     6     7     8   am
     7     8     9    2
     8     1     8    1
     9     1     2    1
    10     2     3    1
    11     3     4    1
    12     4     5    1
    13     5     6    1
    14     6    19    1
    15    19    20    2
    16    19    21    1
    17    21    22   ar
    18    22    23   ar
    19    23    24   ar
    20    24    27    1
    21    27    28   ar
    22    28    29   ar
    23    29    30   ar
    24    30    31   ar
    25    24    25   ar
    26    25    26   ar
    27    13    14   ar
    28    14    15   ar
    29    15    16   ar
    30    16    11   ar
    31     6     1    1
    32    26    21   ar
    33    31    27   ar
    34     7    10    1
    35    31    32    1
@<TRIPOS>MOLECULE
*****
 32 35 0 0 0
SMALL
GASTEIGER

@<TRIPOS>ATOM
      1 C         140.4367  141.1852  168.1876 C.3     1  UNL1        0.0841
      2 C         139.4096  140.6964  169.1655 C.3     1  UNL1        0.0095
      3 C         139.8359  140.1975  170.5144 C.3     1  UNL1        0.0005
      4 C         141.2892  140.1876  170.8854 C.3     1  UNL1        0.0005
      5 C         142.3163  140.6764  169.9075 C.3     1  UNL1        0.0082
      6 C         141.8901  141.1752  168.5587 C.3     1  UNL1        0.0705
      7 N         140.0027  143.1562  166.5516 N.am    1  UNL1       -0.2692
      8 C         140.0104  141.6839  166.8388 C.2     1  UNL1        0.2271
      9 O         139.5918  140.7105  165.7770 O.2     1  UNL1       -0.2747
     10 H         140.2774  143.7951  167.2484 H       1  UNL1        0.1563
     11 C         140.1810  144.5909  162.8556 C.ar    1  UNL1        0.2293
     12 C         140.6073  144.0922  164.2045 C.ar    1  UNL1        0.0921
     13 C         139.5764  143.6549  165.2026 C.ar    1  UNL1        0.1406
     14 N         138.1193  143.7164  164.8518 N.ar    1  UNL1       -0.2087
     15 C         137.6931  144.2152  163.5029 C.ar    1  UNL1        0.2027
     16 N         138.7240  144.6524  162.5048 N.ar    1  UNL1       -0.1892
     17 C         142.5589  144.3688  161.8328 C.3     1  UNL1        0.2542
     18 O         141.2119  145.0282  161.8576 O.3     1  UNL1       -0.4560
     19 C         142.9171  141.6640  167.5808 C.2     1  UNL1        0.1731
     20 O         143.8213  142.8028  167.9493 O.2     1  UNL1       -0.2913
     21 C         143.0401  141.0140  166.2346 C.ar    1  UNL1        0.0347
     22 C         143.2779  141.8542  165.0150 C.ar    1  UNL1        0.0029
     23 C         143.4009  141.2042  163.6687 C.ar    1  UNL1        0.0016
     24 C         143.2861  139.7140  163.5421 C.ar    1  UNL1        0.0171
     25 C         143.0483  138.8738  164.7617 C.ar    1  UNL1        0.0016
     26 C         142.9253  139.5237  166.1080 C.ar    1  UNL1        0.0029
     27 C         143.4091  139.0640  162.1959 C.ar    1  UNL1        0.0754
     28 C         142.6042  137.8982  161.7028 C.ar    1  UNL1        0.0409
     29 C         143.0562  137.5794  160.3085 C.ar    1  UNL1        0.1214
     30 N         144.1405  138.5482  159.9399 N.ar    1  UNL1       -0.1711
     31 N         144.3585  139.4657  161.1063 N.ar    1  UNL1       -0.2757
     32 H         145.0104  140.2023  161.1492 H       1  UNL1        0.1889
@<TRIPOS>BOND
     1    17    18    1
     2    18    11    1
     3    11    12   ar
     4    12    13   ar
     5    13     7    1
     6     7     8   am
     7     8     9    2
     8     1     8    1
     9     1     2    1
    10     2     3    1
    11     3     4    1
    12     4     5    1
    13     5     6    1
    14     6    19    1
    15    19    20    2
    16    19    21    1
    17    21    22   ar
    18    22    23   ar
    19    23    24   ar
    20    24    27    1
    21    27    28   ar
    22    28    29   ar
    23    29    30   ar
    24    30    31   ar
    25    24    25   ar
    26    25    26   ar
    27    13    14   ar
    28    14    15   ar
    29    15    16   ar
    30    16    11   ar
    31     6     1    1
    32    26    21   ar
    33    31    27   ar
    34     7    10    1
    35    31    32    1
@<TRIPOS>MOLECULE
*****
 32 35 0 0 0
SMALL
GASTEIGER

@<TRIPOS>ATOM
      1 C         140.0319  140.3693  167.6339 C.3     1  UNL1        0.0841
      2 C         138.9607  139.7312  168.4677 C.3     1  UNL1        0.0095
      3 C         138.6335  140.2870  169.8220 C.3     1  UNL1        0.0005
      4 C         139.3776  141.4809  170.3425 C.3     1  UNL1        0.0005
      5 C         140.4489  142.1190  169.5087 C.3     1  UNL1        0.0082
      6 C         140.7760  141.5632  168.1544 C.3     1  UNL1        0.0705
      7 N         139.4832  140.1354  165.1052 N.am    1  UNL1       -0.2692
      8 C         140.3591  139.8135  166.2796 C.2     1  UNL1        0.2271
      9 O         141.5622  138.9359  166.0997 O.2     1  UNL1       -0.2747
     10 H         138.6936  140.7115  165.2233 H       1  UNL1        0.1563
     11 C         141.3363  139.5278  161.6488 C.ar    1  UNL1        0.2293
     12 C         141.0091  140.0836  163.0030 C.ar    1  UNL1        0.0921
     13 C         139.8104  139.5796  163.7509 C.ar    1  UNL1        0.1406
     14 N         138.9390  138.5200  163.1445 N.ar    1  UNL1       -0.2087
     15 C         139.2663  137.9642  161.7903 C.ar    1  UNL1        0.2027
     16 N         140.4649  138.4682  161.0424 N.ar    1  UNL1       -0.1892
     17 C         142.5449  141.4283  160.3536 C.3     1  UNL1        0.2542
     18 O         142.5349  140.0317  160.9009 O.3     1  UNL1       -0.4560
     19 C         141.8473  142.2014  167.3206 C.2     1  UNL1        0.1731
     20 O         143.2811  142.1246  167.7548 O.2     1  UNL1       -0.2913
     21 C         141.4848  142.9162  166.0527 C.ar    1  UNL1        0.0347
     22 C         142.4781  143.0066  164.9325 C.ar    1  UNL1        0.0029
     23 C         142.1157  143.7215  163.6645 C.ar    1  UNL1        0.0016
     24 C         140.7599  144.3459  163.5169 C.ar    1  UNL1        0.0171
     25 C         139.7665  144.2555  164.6372 C.ar    1  UNL1        0.0016
     26 C         140.1290  143.5406  165.9051 C.ar    1  UNL1        0.0029
     27 C         140.3974  145.0608  162.2490 C.ar    1  UNL1        0.0754
     28 C         140.7638  144.6316  160.8592 C.ar    1  UNL1        0.0409
     29 C         140.1977  145.6359  159.8995 C.ar    1  UNL1        0.1214
     30 N         139.4814  146.6857  160.6963 N.ar    1  UNL1       -0.1711
     31 N         139.6048  146.3303  162.1483 N.ar    1  UNL1       -0.2757
     32 H         139.2312  146.8406  162.9028 H       1  UNL1        0.1889
@<TRIPOS>BOND
     1    17    18    1
     2    18    11    1
     3    11    12   ar
     4    12    13   ar
     5    13     7    1
     6     7     8   am
     7     8     9    2
     8     1     8    1
     9     1     2    1
    10     2     3    1
    11     3     4    1
    12     4     5    1
    13     5     6    1
    14     6    19    1
    15    19    20    2
    16    19    21    1
    17    21    22   ar
    18    22    23   ar
    19    23    24   ar
    20    24    27    1
    21    27    28   ar
    22    28    29   ar
    23    29    30   ar
    24    30    31   ar
    25    24    25   ar
    26    25    26   ar
    27    13    14   ar
    28    14    15   ar
    29    15    16   ar
    30    16    11   ar
    31     6     1    1
    32    26    21   ar
    33    31    27   ar
    34     7    10    1
    35    31    32    1
@<TRIPOS>MOLECULE
*****
 32 35 0 0 0
SMALL
GASTEIGER

@<TRIPOS>ATOM
      1 C         139.6690  140.0603  161.9386 C.3     1  UNL1        0.0841
      2 C         138.7770  140.6593  160.8918 C.3     1  UNL1        0.0095
      3 C         137.5466  139.9262  160.4460 C.3     1  UNL1        0.0005
      4 C         137.2081  138.5942  161.0470 C.3     1  UNL1        0.0005
      5 C         138.1000  137.9952  162.0937 C.3     1  UNL1        0.0082
      6 C         139.3304  138.7282  162.5395 C.3     1  UNL1        0.0705
      7 N         140.7771  141.9812  163.2920 N.am    1  UNL1       -0.2692
      8 C         140.8993  140.7933  162.3844 C.2     1  UNL1        0.2271
      9 O         142.2521  140.3383  161.9226 O.2     1  UNL1       -0.2747
     10 H         139.8893  142.2799  163.5951 H       1  UNL1        0.1563
     11 C         143.7315  143.2970  165.5921 C.ar    1  UNL1        0.2293
     12 C         142.5011  142.5640  165.1463 C.ar    1  UNL1        0.0921
     13 C         142.0076  142.7143  163.7378 C.ar    1  UNL1        0.1406
     14 N         142.7446  143.5974  162.7751 N.ar    1  UNL1       -0.2087
     15 C         143.9750  144.3304  163.2209 C.ar    1  UNL1        0.2027
     16 N         144.4684  144.1801  164.6294 N.ar    1  UNL1       -0.1892
     17 C         143.3500  142.5072  168.0377 C.3     1  UNL1        0.2542
     18 O         144.2249  143.1467  167.0007 O.3     1  UNL1       -0.4560
     19 C         140.2224  138.1292  163.5862 C.2     1  UNL1        0.1731
     20 O         141.0842  136.9482  163.2507 O.2     1  UNL1       -0.2913
     21 C         140.2525  138.7111  164.9684 C.ar    1  UNL1        0.0347
     22 C         138.9708  139.0792  165.6552 C.ar    1  UNL1        0.0029
     23 C         139.0009  139.6612  167.0374 C.ar    1  UNL1        0.0016
     24 C         140.3127  139.8751  167.7327 C.ar    1  UNL1        0.0171
     25 C         141.5944  139.5070  167.0458 C.ar    1  UNL1        0.0016
     26 C         141.5643  138.9250  165.6637 C.ar    1  UNL1        0.0029
     27 C         140.3428  140.4570  169.1149 C.ar    1  UNL1        0.0754
     28 C         140.1091  141.8952  169.4713 C.ar    1  UNL1        0.0409
     29 C         140.2337  142.0300  170.9600 C.ar    1  UNL1        0.1214
     30 N         140.5445  140.6751  171.5237 N.ar    1  UNL1       -0.1711
     31 N         140.6119  139.7029  170.3833 N.ar    1  UNL1       -0.2757
     32 H         140.7997  138.7392  170.4548 H       1  UNL1        0.1889
@<TRIPOS>BOND
     1    17    18    1
     2    18    11    1
     3    11    12   ar
     4    12    13   ar
     5    13     7    1
     6     7     8   am
     7     8     9    2
     8     1     8    1
     9     1     2    1
    10     2     3    1
    11     3     4    1
    12     4     5    1
    13     5     6    1
    14     6    19    1
    15    19    20    2
    16    19    21    1
    17    21    22   ar
    18    22    23   ar
    19    23    24   ar
    20    24    27    1
    21    27    28   ar
    22    28    29   ar
    23    29    30   ar
    24    30    31   ar
    25    24    25   ar
    26    25    26   ar
    27    13    14   ar
    28    14    15   ar
    29    15    16   ar
    30    16    11   ar
    31     6     1    1
    32    26    21   ar
    33    31    27   ar
    34     7    10    1
    35    31    32    1
