@<TRIPOS>MOLECULE
*****
 31 33 0 0 0
SMALL
GASTEIGER

@<TRIPOS>ATOM
      1 C         142.5574  141.7092  167.5259 C.ar    1  UNL1        0.1300
      2 N         143.4338  142.5222  168.4319 N.ar    1  UNL1       -0.1995
      3 C         143.0414  142.7325  169.8643 C.ar    1  UNL1        0.2145
      4 N         143.9179  143.5455  170.7704 N.pl3   1  UNL1       -0.3274
      5 N         141.7727  142.1299  170.3907 N.ar    1  UNL1       -0.2185
      6 C         140.8963  141.3168  169.4847 C.ar    1  UNL1        0.0639
      7 C         141.2886  141.1065  168.0522 C.ar    1  UNL1        0.0429
      8 C         140.4122  140.2935  167.1462 C.3     1  UNL1        0.1244
      9 N         139.1435  139.6909  167.6726 N.am    1  UNL1       -0.2710
     10 C         138.2670  138.8778  166.7665 C.2     1  UNL1        0.2553
     11 O         136.9983  138.2752  167.2929 O.2     1  UNL1       -0.2693
     12 C         138.7512  139.9012  169.1050 C.3     1  UNL1        0.1003
     13 C         139.6275  140.7142  170.0110 C.3     1  UNL1        0.0672
     14 H         144.7506  143.9411  170.4249 H       1  UNL1        0.1452
     15 H         143.6604  143.6836  171.7106 H       1  UNL1        0.1452
     16 C         138.6594  138.6675  165.3341 C.ar    1  UNL1        0.0830
     17 C         139.4031  137.4848  164.7882 C.ar    1  UNL1        0.0116
     18 C         139.5803  137.6893  163.3127 C.ar    1  UNL1        0.0076
     19 C         138.9459  138.9984  162.9468 C.ar    1  UNL1        0.0356
     20 S         138.3768  139.6029  164.1960 S.2     1  UNL1       -0.0819
     21 N         142.9497  141.4989  166.0934 N.pl3   1  UNL1       -0.3197
     22 H         143.0115  140.5865  165.7289 H       1  UNL1        0.1481
     23 C         143.2478  142.6787  165.2165 C.3     1  UNL1        0.0728
     24 C         142.1518  143.6330  164.8450 C.3     1  UNL1        0.0196
     25 C         140.7430  143.1382  164.7020 C.3     1  UNL1        0.0017
     26 C         138.7777  144.7407  165.2673 C.3     1  UNL1        0.0000
     27 C         139.6827  143.6085  165.6532 C.3     1  UNL1        0.0001
     28 C         144.6420  142.9043  164.7110 C.3     1  UNL1        0.0512
     29 C         145.0633  142.3297  163.3910 C.3     1  UNL1        0.1389
     30 O         146.4553  141.7997  163.2138 O.3     1  UNL1       -0.3819
     31 H         147.0905  142.5295  163.2833 H       1  UNL1        0.2104
@<TRIPOS>BOND
     1    26    27    1
     2    27    25    1
     3    25    24    1
     4    23    24    1
     5    23    28    1
     6    28    29    1
     7    29    30    1
     8    23    21    1
     9    21     1    1
    10     1     2   ar
    11     2     3   ar
    12     3     4    1
    13     3     5   ar
    14     5     6   ar
    15     6     7   ar
    16     7     8    1
    17     8     9    1
    18     9    10   am
    19    10    11    2
    20    10    16    1
    21    16    17   ar
    22    17    18   ar
    23    18    19   ar
    24    19    20   ar
    25     9    12    1
    26    12    13    1
    27     7     1   ar
    28    20    16   ar
    29    13     6    1
    30    30    31    1
    31    21    22    1
    32     4    14    1
    33     4    15    1
@<TRIPOS>MOLECULE
*****
 31 33 0 0 0
SMALL
GASTEIGER

@<TRIPOS>ATOM
      1 C         142.5149  141.8049  167.8317 C.ar    1  UNL1        0.1300
      2 N         143.2602  142.6758  168.7991 N.ar    1  UNL1       -0.1995
      3 C         142.6986  142.9288  170.1668 C.ar    1  UNL1        0.2145
      4 N         143.4440  143.7998  171.1343 N.pl3   1  UNL1       -0.3274
      5 N         141.3917  142.3109  170.5671 N.ar    1  UNL1       -0.2185
      6 C         140.6464  141.4400  169.5996 C.ar    1  UNL1        0.0639
      7 C         141.2080  141.1869  168.2319 C.ar    1  UNL1        0.0429
      8 C         140.4627  140.3160  167.2645 C.3     1  UNL1        0.1244
      9 N         139.1558  139.6981  167.6647 N.am    1  UNL1       -0.2710
     10 C         138.4105  138.8271  166.6973 C.2     1  UNL1        0.2553
     11 O         137.1036  138.2092  167.0975 O.2     1  UNL1       -0.2693
     12 C         138.5942  139.9511  169.0324 C.3     1  UNL1        0.1003
     13 C         139.3395  140.8221  169.9999 C.3     1  UNL1        0.0672
     14 H         144.3017  144.2054  170.8716 H       1  UNL1        0.1452
     15 H         143.0754  143.9659  172.0320 H       1  UNL1        0.1452
     16 C         138.9720  138.5741  165.3296 C.ar    1  UNL1        0.0830
     17 C         139.9341  137.4845  164.9592 C.ar    1  UNL1        0.0116
     18 C         140.2268  137.6032  163.4929 C.ar    1  UNL1        0.0076
     19 C         139.4457  138.7662  162.9569 C.ar    1  UNL1        0.0356
     20 S         138.6702  139.3662  164.0921 S.2     1  UNL1       -0.0819
     21 N         143.0765  141.5518  166.4640 N.pl3   1  UNL1       -0.3197
     22 H         143.3869  140.6504  166.2184 H       1  UNL1        0.1481
     23 C         143.1652  142.6722  165.4706 C.3     1  UNL1        0.0728
     24 C         144.5062  143.1623  165.0106 C.3     1  UNL1        0.0196
     25 C         145.3899  142.2699  164.1903 C.3     1  UNL1        0.0017
     26 C         144.9897  139.7068  164.0477 C.3     1  UNL1        0.0000
     27 C         144.8068  141.0836  163.4812 C.3     1  UNL1        0.0001
     28 C         141.9129  143.3025  164.9371 C.3     1  UNL1        0.0512
     29 C         141.9890  144.2719  163.7950 C.3     1  UNL1        0.1389
     30 O         141.3107  145.6058  163.8971 O.3     1  UNL1       -0.3819
     31 H         140.3500  145.4778  163.9376 H       1  UNL1        0.2104
@<TRIPOS>BOND
     1    26    27    1
     2    27    25    1
     3    25    24    1
     4    23    24    1
     5    23    28    1
     6    28    29    1
     7    29    30    1
     8    23    21    1
     9    21     1    1
    10     1     2   ar
    11     2     3   ar
    12     3     4    1
    13     3     5   ar
    14     5     6   ar
    15     6     7   ar
    16     7     8    1
    17     8     9    1
    18     9    10   am
    19    10    11    2
    20    10    16    1
    21    16    17   ar
    22    17    18   ar
    23    18    19   ar
    24    19    20   ar
    25     9    12    1
    26    12    13    1
    27     7     1   ar
    28    20    16   ar
    29    13     6    1
    30    30    31    1
    31    21    22    1
    32     4    14    1
    33     4    15    1
@<TRIPOS>MOLECULE
*****
 31 33 0 0 0
SMALL
GASTEIGER

@<TRIPOS>ATOM
      1 C         140.0721  139.8486  166.3799 C.ar    1  UNL1        0.1300
      2 N         138.8762  139.3897  167.1603 N.ar    1  UNL1       -0.1995
      3 C         138.1252  138.1644  166.7306 C.ar    1  UNL1        0.2145
      4 N         136.9292  137.7055  167.5111 N.pl3   1  UNL1       -0.3274
      5 N         138.5701  137.3980  165.5204 N.ar    1  UNL1       -0.2185
      6 C         139.7661  137.8569  164.7399 C.ar    1  UNL1        0.0639
      7 C         140.5171  139.0822  165.1696 C.ar    1  UNL1        0.0429
      8 C         141.7130  139.5411  164.3892 C.3     1  UNL1        0.1244
      9 N         142.1580  138.7747  163.1790 N.am    1  UNL1       -0.2710
     10 C         143.3539  139.2336  162.3985 C.2     1  UNL1        0.2553
     11 O         143.7989  138.4672  161.1883 O.2     1  UNL1       -0.2693
     12 C         141.4070  137.5494  162.7492 C.3     1  UNL1        0.1003
     13 C         140.2111  137.0905  163.5297 C.3     1  UNL1        0.0672
     14 H         136.6372  138.2085  168.3054 H       1  UNL1        0.1452
     15 H         136.4363  136.9013  167.2290 H       1  UNL1        0.1452
     16 C         144.1049  140.4589  162.8283 C.ar    1  UNL1        0.0830
     17 C         145.2046  140.5068  163.8473 C.ar    1  UNL1        0.0116
     18 C         145.6674  141.9289  163.9633 C.ar    1  UNL1        0.0076
     19 C         144.8537  142.7599  163.0160 C.ar    1  UNL1        0.0356
     20 S         143.8881  141.8514  162.3145 S.2     1  UNL1       -0.0819
     21 N         140.8231  141.0738  166.8097 N.pl3   1  UNL1       -0.3197
     22 H         140.5493  141.9600  166.4796 H       1  UNL1        0.1481
     23 C         141.9911  140.9490  167.7424 C.3     1  UNL1        0.0728
     24 C         142.9447  142.0950  167.9079 C.3     1  UNL1        0.0196
     25 C         143.4975  142.4209  169.2637 C.3     1  UNL1        0.0017
     26 C         141.2252  143.4772  169.9500 C.3     1  UNL1        0.0000
     27 C         142.6087  143.0238  170.3109 C.3     1  UNL1        0.0001
     28 C         142.2056  139.6780  168.5098 C.3     1  UNL1        0.0512
     29 C         141.4688  139.4446  169.7953 C.3     1  UNL1        0.1389
     30 O         140.0078  139.7701  169.8921 O.3     1  UNL1       -0.3819
     31 H         139.8836  140.7283  169.8054 H       1  UNL1        0.2104
@<TRIPOS>BOND
     1    26    27    1
     2    27    25    1
     3    25    24    1
     4    23    24    1
     5    23    28    1
     6    28    29    1
     7    29    30    1
     8    23    21    1
     9    21     1    1
    10     1     2   ar
    11     2     3   ar
    12     3     4    1
    13     3     5   ar
    14     5     6   ar
    15     6     7   ar
    16     7     8    1
    17     8     9    1
    18     9    10   am
    19    10    11    2
    20    10    16    1
    21    16    17   ar
    22    17    18   ar
    23    18    19   ar
    24    19    20   ar
    25     9    12    1
    26    12    13    1
    27     7     1   ar
    28    20    16   ar
    29    13     6    1
    30    30    31    1
    31    21    22    1
    32     4    14    1
    33     4    15    1
@<TRIPOS>MOLECULE
*****
 31 33 0 0 0
SMALL
GASTEIGER

@<TRIPOS>ATOM
      1 C         141.1118  140.3555  164.5010 C.ar    1  UNL1        0.1300
      2 N         141.0533  139.8508  163.0897 N.ar    1  UNL1       -0.1995
      3 C         139.9971  138.8639  162.6892 C.ar    1  UNL1        0.2145
      4 N         139.9387  138.3592  161.2778 N.pl3   1  UNL1       -0.3274
      5 N         138.9994  138.3816  163.7001 N.ar    1  UNL1       -0.2185
      6 C         139.0578  138.8862  165.1115 C.ar    1  UNL1        0.0639
      7 C         140.1140  139.8732  165.5119 C.ar    1  UNL1        0.0429
      8 C         140.1725  140.3778  166.9233 C.3     1  UNL1        0.1244
      9 N         139.1748  139.8955  167.9341 N.am    1  UNL1       -0.2710
     10 C         139.2332  140.4002  169.3455 C.2     1  UNL1        0.2553
     11 O         138.2355  139.9179  170.3564 O.2     1  UNL1       -0.2693
     12 C         138.1186  138.9086  167.5337 C.3     1  UNL1        0.1003
     13 C         138.0601  138.4039  166.1223 C.3     1  UNL1        0.0672
     14 H         140.5935  138.6758  160.6143 H       1  UNL1        0.1452
     15 H         139.2455  137.7115  161.0150 H       1  UNL1        0.1452
     16 C         140.2894  141.3872  169.7460 C.ar    1  UNL1        0.0830
     17 C         140.3119  142.8454  169.3952 C.ar    1  UNL1        0.0116
     18 C         141.5450  143.4487  170.0000 C.ar    1  UNL1        0.0076
     19 C         142.2845  142.3632  170.7245 C.ar    1  UNL1        0.0356
     20 S         141.5085  141.0892  170.5675 S.2     1  UNL1       -0.0819
     21 N         142.1680  141.3424  164.9014 N.pl3   1  UNL1       -0.3197
     22 H         142.9575  141.0408  165.4063 H       1  UNL1        0.1481
     23 C         142.0212  142.7890  164.5327 C.3     1  UNL1        0.0728
     24 C         140.6720  143.3390  164.1765 C.3     1  UNL1        0.0196
     25 C         139.7750  143.8796  165.2504 C.3     1  UNL1        0.0017
     26 C         137.8563  144.1757  163.5240 C.3     1  UNL1        0.0000
     27 C         138.3392  144.1871  164.9440 C.3     1  UNL1        0.0001
     28 C         143.2238  143.6855  164.5202 C.3     1  UNL1        0.0512
     29 C         143.1649  145.0095  163.8178 C.3     1  UNL1        0.1389
     30 O         143.3232  145.0757  162.3277 O.3     1  UNL1       -0.3819
     31 H         144.2222  144.8034  162.0856 H       1  UNL1        0.2104
@<TRIPOS>BOND
     1    26    27    1
     2    27    25    1
     3    25    24    1
     4    23    24    1
     5    23    28    1
     6    28    29    1
     7    29    30    1
     8    23    21    1
     9    21     1    1
    10     1     2   ar
    11     2     3   ar
    12     3     4    1
    13     3     5   ar
    14     5     6   ar
    15     6     7   ar
    16     7     8    1
    17     8     9    1
    18     9    10   am
    19    10    11    2
    20    10    16    1
    21    16    17   ar
    22    17    18   ar
    23    18    19   ar
    24    19    20   ar
    25     9    12    1
    26    12    13    1
    27     7     1   ar
    28    20    16   ar
    29    13     6    1
    30    30    31    1
    31    21    22    1
    32     4    14    1
    33     4    15    1
@<TRIPOS>MOLECULE
*****
 31 33 0 0 0
SMALL
GASTEIGER

@<TRIPOS>ATOM
      1 C         140.9968  144.1671  163.6942 C.ar    1  UNL1        0.1300
      2 N         140.7382  145.3422  162.7987 N.ar    1  UNL1       -0.1995
      3 C         139.3836  145.5324  162.1832 C.ar    1  UNL1        0.2145
      4 N         139.1250  146.7077  161.2876 N.pl3   1  UNL1       -0.3274
      5 N         138.2875  144.5474  162.4632 N.ar    1  UNL1       -0.2185
      6 C         138.5461  143.3722  163.3588 C.ar    1  UNL1        0.0639
      7 C         139.9007  143.1820  163.9743 C.ar    1  UNL1        0.0429
      8 C         140.1593  142.0068  164.8699 C.3     1  UNL1        0.1244
      9 N         139.0633  141.0219  165.1499 N.am    1  UNL1       -0.2710
     10 C         139.3218  139.8466  166.0455 C.2     1  UNL1        0.2553
     11 O         138.2258  138.8616  166.3256 O.2     1  UNL1       -0.2693
     12 C         137.7087  141.2121  164.5345 C.3     1  UNL1        0.1003
     13 C         137.4501  142.3872  163.6389 C.3     1  UNL1        0.0672
     14 H         139.8444  147.3542  161.1038 H       1  UNL1        0.1452
     15 H         138.2359  146.8325  160.8836 H       1  UNL1        0.1452
     16 C         140.6765  139.6564  166.6610 C.ar    1  UNL1        0.0830
     17 C         141.8531  138.9882  166.0137 C.ar    1  UNL1        0.0116
     18 C         142.9961  139.0198  166.9845 C.ar    1  UNL1        0.0076
     19 C         142.5260  139.7076  168.2318 C.ar    1  UNL1        0.0356
     20 S         141.0923  140.1010  168.0319 S.2     1  UNL1       -0.0819
     21 N         142.3514  143.9769  164.3097 N.pl3   1  UNL1       -0.3197
     22 H         142.5825  144.4438  165.1450 H       1  UNL1        0.1481
     23 C         143.3539  143.0752  163.6525 C.3     1  UNL1        0.0728
     24 C         144.6704  142.8056  164.3188 C.3     1  UNL1        0.0196
     25 C         145.5375  141.6796  163.8385 C.3     1  UNL1        0.0017
     26 C         144.5091  139.3353  163.3953 C.3     1  UNL1        0.0000
     27 C         145.2616  140.2758  164.2892 C.3     1  UNL1        0.0001
     28 C         143.0399  142.4431  162.3288 C.3     1  UNL1        0.0512
     29 C         143.2310  143.2223  161.0615 C.3     1  UNL1        0.1389
     30 O         142.7386  144.6361  160.9689 O.3     1  UNL1       -0.3819
     31 H         141.7700  144.6452  161.0205 H       1  UNL1        0.2104
@<TRIPOS>BOND
     1    26    27    1
     2    27    25    1
     3    25    24    1
     4    23    24    1
     5    23    28    1
     6    28    29    1
     7    29    30    1
     8    23    21    1
     9    21     1    1
    10     1     2   ar
    11     2     3   ar
    12     3     4    1
    13     3     5   ar
    14     5     6   ar
    15     6     7   ar
    16     7     8    1
    17     8     9    1
    18     9    10   am
    19    10    11    2
    20    10    16    1
    21    16    17   ar
    22    17    18   ar
    23    18    19   ar
    24    19    20   ar
    25     9    12    1
    26    12    13    1
    27     7     1   ar
    28    20    16   ar
    29    13     6    1
    30    30    31    1
    31    21    22    1
    32     4    14    1
    33     4    15    1
@<TRIPOS>MOLECULE
*****
 31 33 0 0 0
SMALL
GASTEIGER

@<TRIPOS>ATOM
      1 C         142.1762  141.8662  167.7230 C.ar    1  UNL1        0.1300
      2 N         143.0063  142.7025  168.6511 N.ar    1  UNL1       -0.1995
      3 C         142.6090  142.8446  170.0905 C.ar    1  UNL1        0.2145
      4 N         143.4392  143.6809  171.0187 N.pl3   1  UNL1       -0.3274
      5 N         141.3815  142.1505  170.6018 N.ar    1  UNL1       -0.2185
      6 C         140.5513  141.3142  169.6736 C.ar    1  UNL1        0.0639
      7 C         140.9486  141.1721  168.2342 C.ar    1  UNL1        0.0429
      8 C         140.1185  140.3358  167.3061 C.3     1  UNL1        0.1244
      9 N         138.8910  139.6417  167.8173 N.am    1  UNL1       -0.2710
     10 C         138.0608  138.8054  166.8891 C.2     1  UNL1        0.2553
     11 O         136.8333  138.1113  167.4004 O.2     1  UNL1       -0.2693
     12 C         138.4937  139.7838  169.2567 C.3     1  UNL1        0.1003
     13 C         139.3238  140.6201  170.1849 C.3     1  UNL1        0.0672
     14 H         144.2449  144.1365  170.6831 H       1  UNL1        0.1452
     15 H         143.1784  143.7742  171.9634 H       1  UNL1        0.1452
     16 C         138.4582  138.6633  165.4497 C.ar    1  UNL1        0.0830
     17 C         139.1849  137.4979  164.8466 C.ar    1  UNL1        0.0116
     18 C         139.3744  137.7759  163.3848 C.ar    1  UNL1        0.0076
     19 C         138.7648  139.1132  163.0845 C.ar    1  UNL1        0.0356
     20 S         138.1985  139.6615  164.3607 S.2     1  UNL1       -0.0819
     21 N         142.5735  141.7241  166.2835 N.pl3   1  UNL1       -0.3197
     22 H         142.3294  142.4227  165.6342 H       1  UNL1        0.1481
     23 C         143.3429  140.5177  165.8335 C.3     1  UNL1        0.0728
     24 C         144.1158  140.5574  164.5485 C.3     1  UNL1        0.0196
     25 C         145.0282  141.7120  164.2575 C.3     1  UNL1        0.0017
     26 C         143.9969  144.0837  164.0098 C.3     1  UNL1        0.0000
     27 C         144.5572  142.8393  163.3873 C.3     1  UNL1        0.0001
     28 C         143.3393  139.2714  166.6683 C.3     1  UNL1        0.0512
     29 C         144.0752  138.0518  166.1984 C.3     1  UNL1        0.1389
     30 O         144.5995  137.0616  167.1956 O.3     1  UNL1       -0.3819
     31 H         145.2963  137.4766  167.7277 H       1  UNL1        0.2104
@<TRIPOS>BOND
     1    26    27    1
     2    27    25    1
     3    25    24    1
     4    23    24    1
     5    23    28    1
     6    28    29    1
     7    29    30    1
     8    23    21    1
     9    21     1    1
    10     1     2   ar
    11     2     3   ar
    12     3     4    1
    13     3     5   ar
    14     5     6   ar
    15     6     7   ar
    16     7     8    1
    17     8     9    1
    18     9    10   am
    19    10    11    2
    20    10    16    1
    21    16    17   ar
    22    17    18   ar
    23    18    19   ar
    24    19    20   ar
    25     9    12    1
    26    12    13    1
    27     7     1   ar
    28    20    16   ar
    29    13     6    1
    30    30    31    1
    31    21    22    1
    32     4    14    1
    33     4    15    1
@<TRIPOS>MOLECULE
*****
 31 33 0 0 0
SMALL
GASTEIGER

@<TRIPOS>ATOM
      1 C         139.8898  139.4152  166.7677 C.ar    1  UNL1        0.1300
      2 N         138.9684  139.3426  167.9490 N.ar    1  UNL1       -0.1995
      3 C         139.1883  140.2432  169.1282 C.ar    1  UNL1        0.2145
      4 N         138.2668  140.1706  170.3096 N.pl3   1  UNL1       -0.3274
      5 N         140.3297  141.2164  169.1261 N.ar    1  UNL1       -0.2185
      6 C         141.2512  141.2891  167.9447 C.ar    1  UNL1        0.0639
      7 C         141.0313  140.3884  166.7655 C.ar    1  UNL1        0.0429
      8 C         141.9527  140.4610  165.5841 C.3     1  UNL1        0.1244
      9 N         143.0941  141.4342  165.5820 N.am    1  UNL1       -0.2710
     10 C         144.0156  141.5069  164.4006 C.2     1  UNL1        0.2553
     11 O         145.1570  142.4801  164.3984 O.2     1  UNL1       -0.2693
     12 C         143.3140  142.3349  166.7612 C.3     1  UNL1        0.1003
     13 C         142.3926  142.2623  167.9425 C.3     1  UNL1        0.0672
     14 H         137.5177  139.5318  170.3110 H       1  UNL1        0.1452
     15 H         138.4112  140.7617  171.0836 H       1  UNL1        0.1452
     16 C         143.7956  140.6063  163.2214 C.ar    1  UNL1        0.0830
     17 C         144.2682  139.1883  163.0946 C.ar    1  UNL1        0.0116
     18 C         143.8291  138.6712  161.7568 C.ar    1  UNL1        0.0076
     19 C         143.0852  139.7695  161.0567 C.ar    1  UNL1        0.0356
     20 S         143.0645  140.9654  161.9619 S.2     1  UNL1       -0.0819
     21 N         139.6698  138.5146  165.5885 N.pl3   1  UNL1       -0.3197
     22 H         140.0664  137.6136  165.5765 H       1  UNL1        0.1481
     23 C         138.8456  138.9867  164.4276 C.3     1  UNL1        0.0728
     24 C         138.0225  140.2347  164.5504 C.3     1  UNL1        0.0196
     25 C         138.5428  141.5327  164.0076 C.3     1  UNL1        0.0017
     26 C         137.7376  143.9039  163.3155 C.3     1  UNL1        0.0000
     27 C         137.8485  142.8188  164.3452 C.3     1  UNL1        0.0001
     28 C         138.8445  138.2109  163.1437 C.3     1  UNL1        0.0512
     29 C         140.1415  137.8744  162.4696 C.3     1  UNL1        0.1389
     30 O         141.0473  136.8359  163.0621 O.3     1  UNL1       -0.3819
     31 H         141.3846  137.1499  163.9156 H       1  UNL1        0.2104
@<TRIPOS>BOND
     1    26    27    1
     2    27    25    1
     3    25    24    1
     4    23    24    1
     5    23    28    1
     6    28    29    1
     7    29    30    1
     8    23    21    1
     9    21     1    1
    10     1     2   ar
    11     2     3   ar
    12     3     4    1
    13     3     5   ar
    14     5     6   ar
    15     6     7   ar
    16     7     8    1
    17     8     9    1
    18     9    10   am
    19    10    11    2
    20    10    16    1
    21    16    17   ar
    22    17    18   ar
    23    18    19   ar
    24    19    20   ar
    25     9    12    1
    26    12    13    1
    27     7     1   ar
    28    20    16   ar
    29    13     6    1
    30    30    31    1
    31    21    22    1
    32     4    14    1
    33     4    15    1
@<TRIPOS>MOLECULE
*****
 31 33 0 0 0
SMALL
GASTEIGER

@<TRIPOS>ATOM
      1 C         143.0663  139.0782  164.1206 C.ar    1  UNL1        0.1300
      2 N         143.5237  138.5473  162.7944 N.ar    1  UNL1       -0.1995
      3 C         142.5848  137.7441  161.9438 C.ar    1  UNL1        0.2145
      4 N         143.0423  137.2132  160.6176 N.pl3   1  UNL1       -0.3274
      5 N         141.1885  137.4719  162.4195 N.ar    1  UNL1       -0.2185
      6 C         140.7311  138.0028  163.7457 C.ar    1  UNL1        0.0639
      7 C         141.6699  138.8060  164.5963 C.ar    1  UNL1        0.0429
      8 C         141.2125  139.3370  165.9225 C.3     1  UNL1        0.1244
      9 N         139.8163  139.0647  166.3981 N.am    1  UNL1       -0.2710
     10 C         139.3588  139.5957  167.7244 C.2     1  UNL1        0.2553
     11 O         137.9625  139.3234  168.2000 O.2     1  UNL1       -0.2693
     12 C         138.8774  138.2615  165.5476 C.3     1  UNL1        0.1003
     13 C         139.3348  137.7306  164.2214 C.3     1  UNL1        0.0672
     14 H         143.9587  137.3918  160.3054 H       1  UNL1        0.1452
     15 H         142.4261  136.6860  160.0593 H       1  UNL1        0.1452
     16 C         140.2977  140.3989  168.5749 C.ar    1  UNL1        0.0830
     17 C         140.5953  141.8609  168.4207 C.ar    1  UNL1        0.0116
     18 C         141.5853  142.2467  169.4795 C.ar    1  UNL1        0.0076
     19 C         141.8996  141.0230  170.2881 C.ar    1  UNL1        0.0356
     20 S         141.1037  139.8810  169.7291 S.2     1  UNL1       -0.0819
     21 N         144.0051  139.8814  164.9711 N.pl3   1  UNL1       -0.3197
     22 H         144.4668  139.4572  165.7302 H       1  UNL1        0.1481
     23 C         144.2406  141.3309  164.6652 C.3     1  UNL1        0.0728
     24 C         143.2678  142.3665  165.1460 C.3     1  UNL1        0.0196
     25 C         142.0565  142.6962  164.3249 C.3     1  UNL1        0.0017
     26 C         139.6484  143.2140  165.1514 C.3     1  UNL1        0.0000
     27 C         141.0426  143.6730  164.8426 C.3     1  UNL1        0.0001
     28 C         145.4488  141.7447  163.8785 C.3     1  UNL1        0.0512
     29 C         145.3055  142.1492  162.4412 C.3     1  UNL1        0.1389
     30 O         144.8887  143.5476  162.0936 O.3     1  UNL1       -0.3819
     31 H         143.9796  143.6986  162.3962 H       1  UNL1        0.2104
@<TRIPOS>BOND
     1    26    27    1
     2    27    25    1
     3    25    24    1
     4    23    24    1
     5    23    28    1
     6    28    29    1
     7    29    30    1
     8    23    21    1
     9    21     1    1
    10     1     2   ar
    11     2     3   ar
    12     3     4    1
    13     3     5   ar
    14     5     6   ar
    15     6     7   ar
    16     7     8    1
    17     8     9    1
    18     9    10   am
    19    10    11    2
    20    10    16    1
    21    16    17   ar
    22    17    18   ar
    23    18    19   ar
    24    19    20   ar
    25     9    12    1
    26    12    13    1
    27     7     1   ar
    28    20    16   ar
    29    13     6    1
    30    30    31    1
    31    21    22    1
    32     4    14    1
    33     4    15    1
@<TRIPOS>MOLECULE
*****
 31 33 0 0 0
SMALL
GASTEIGER

@<TRIPOS>ATOM
      1 C         141.0303  144.2207  163.7558 C.ar    1  UNL1        0.1300
      2 N         140.7807  145.3998  162.8629 N.ar    1  UNL1       -0.1995
      3 C         139.4760  145.5253  162.1335 C.ar    1  UNL1        0.2145
      4 N         139.2263  146.7045  161.2406 N.pl3   1  UNL1       -0.3274
      5 N         138.4209  144.4717  162.2970 N.ar    1  UNL1       -0.2185
      6 C         138.6706  143.2925  163.1899 C.ar    1  UNL1        0.0639
      7 C         139.9753  143.1670  163.9193 C.ar    1  UNL1        0.0429
      8 C         140.2249  141.9879  164.8122 C.3     1  UNL1        0.1244
      9 N         139.1699  140.9343  164.9757 N.am    1  UNL1       -0.2710
     10 C         139.4195  139.7550  165.8686 C.2     1  UNL1        0.2553
     11 O         138.3645  138.7014  166.0321 O.2     1  UNL1       -0.2693
     12 C         137.8652  141.0598  164.2463 C.3     1  UNL1        0.1003
     13 C         137.6155  142.2389  163.3534 C.3     1  UNL1        0.0672
     14 H         139.9188  147.3960  161.1333 H       1  UNL1        0.1452
     15 H         138.3700  146.7869  160.7619 H       1  UNL1        0.1452
     16 C         140.7242  139.6295  166.5980 C.ar    1  UNL1        0.0830
     17 C         141.9872  139.0343  166.0497 C.ar    1  UNL1        0.0116
     18 C         143.0386  139.1141  167.1165 C.ar    1  UNL1        0.0076
     19 C         142.4254  139.7586  168.3243 C.ar    1  UNL1        0.0356
     20 S         140.9951  140.0772  168.0038 S.2     1  UNL1       -0.0819
     21 N         142.3350  144.0951  164.4851 N.pl3   1  UNL1       -0.3197
     22 H         142.4246  144.4512  165.3986 H       1  UNL1        0.1481
     23 C         143.5033  143.4270  163.8228 C.3     1  UNL1        0.0728
     24 C         143.9692  143.8936  162.4755 C.3     1  UNL1        0.0196
     25 C         143.4121  143.2680  161.2312 C.3     1  UNL1        0.0017
     26 C         144.0661  142.6148  158.8031 C.3     1  UNL1        0.0000
     27 C         144.3233  142.5511  160.2795 C.3     1  UNL1        0.0001
     28 C         144.2057  142.2923  164.5077 C.3     1  UNL1        0.0512
     29 C         145.0783  141.3634  163.7167 C.3     1  UNL1        0.1389
     30 O         146.4340  141.8146  163.2603 O.3     1  UNL1       -0.3819
     31 H         146.3359  142.5331  162.6162 H       1  UNL1        0.2104
@<TRIPOS>BOND
     1    26    27    1
     2    27    25    1
     3    25    24    1
     4    23    24    1
     5    23    28    1
     6    28    29    1
     7    29    30    1
     8    23    21    1
     9    21     1    1
    10     1     2   ar
    11     2     3   ar
    12     3     4    1
    13     3     5   ar
    14     5     6   ar
    15     6     7   ar
    16     7     8    1
    17     8     9    1
    18     9    10   am
    19    10    11    2
    20    10    16    1
    21    16    17   ar
    22    17    18   ar
    23    18    19   ar
    24    19    20   ar
    25     9    12    1
    26    12    13    1
    27     7     1   ar
    28    20    16   ar
    29    13     6    1
    30    30    31    1
    31    21    22    1
    32     4    14    1
    33     4    15    1
