@<TRIPOS>MOLECULE
*****
 37 42 0 0 0
SMALL
GASTEIGER

@<TRIPOS>ATOM
      1 C         141.4582  140.7666  166.3856 C.ar    1  UNL1        0.2352
      2 N         140.8748  141.5324  165.2354 N.ar    1  UNL1       -0.1977
      3 C         140.1546  140.5601  164.3488 C.ar    1  UNL1        0.1428
      4 N         140.2929  139.1934  164.9512 N.ar    1  UNL1       -0.2348
      5 N         141.0986  139.3210  166.2100 N.ar    1  UNL1       -0.1330
      6 C         139.7520  137.8891  164.4450 C.3     1  UNL1        0.1289
      7 C         138.9390  137.6295  163.2113 C.3     1  UNL1        0.0264
      8 C         138.4664  138.6100  162.1793 C.3     1  UNL1        0.0028
      9 C         138.6899  140.0923  162.1259 C.3     1  UNL1        0.0121
     10 C         139.4412  140.9602  163.0915 C.3     1  UNL1        0.0828
     11 C         139.4849  142.4213  162.7552 C.ar    1  UNL1        0.0145
     12 C         138.4328  143.3462  163.2915 C.ar    1  UNL1        0.0008
     13 C         138.4764  144.8074  162.9553 C.ar    1  UNL1        0.0318
     14 C         139.5723  145.3437  162.0826 C.ar    1  UNL1        0.1696
     15 F         139.6159  146.8048  161.7463 F       1  UNL1       -0.2017
     16 C         140.6244  144.4189  161.5462 C.ar    1  UNL1        0.1943
     17 F         141.7202  144.9552  160.6735 F       1  UNL1       -0.1994
     18 C         140.5807  142.9577  161.8825 C.ar    1  UNL1        0.1660
     19 F         141.6328  142.0328  161.3461 F       1  UNL1       -0.2020
     20 N         142.2605  141.3448  167.5135 N.pl3   1  UNL1       -0.3033
     21 H         143.2225  141.5172  167.3954 H       1  UNL1        0.1496
     22 N         142.1535  141.4311  167.5894 N.pl3   1  UNL1       -0.2930
     23 C         142.5615  140.6988  168.8333 C.3     1  UNL1        0.0937
     24 C         141.8981  141.0143  170.1410 C.3     1  UNL1        0.0378
     25 C         141.0031  141.6319  171.1743 C.3     1  UNL1        0.0035
     26 C         140.1489  142.6596  170.4931 C.3     1  UNL1        0.0035
     27 C         140.5160  142.6772  169.0387 C.3     1  UNL1        0.0378
     28 C         141.0821  142.4789  167.6533 C.3     1  UNL1        0.0937
     29 C         141.5970  141.6603  168.8212 C.3     1  UNL1        0.0750
     30 C         143.7342  141.8934  163.9786 C.ar    1  UNL1        0.2293
     31 C         143.0707  142.2089  165.2864 C.ar    1  UNL1        0.0920
     32 C         142.8170  141.1156  166.2816 C.ar    1  UNL1        0.1381
     33 N         143.2268  139.7069  165.9691 N.ar    1  UNL1       -0.2088
     34 C         143.8903  139.3915  164.6613 C.ar    1  UNL1        0.2027
     35 N         144.1440  140.4848  163.6661 N.ar    1  UNL1       -0.1892
     36 C         143.8877  144.4227  163.4049 C.3     1  UNL1        0.2542
     37 O         143.9879  142.9866  162.9834 O.3     1  UNL1       -0.4560
@<TRIPOS>BOND
     1    36    37    1
     2    37    30    1
     3    30    31   ar
     4    31    32   ar
     5    32    22    1
     6    22    23    1
     7    24    23    1
     8    24    25    1
     9    25    26    1
    10    27    26    1
    11    27    28    1
    12    27    29    1
    13    29    20    1
    14    20     1    1
    15     1     2   ar
    16     2     3   ar
    17     3     4   ar
    18     4     5   ar
    19     4     6    1
    20     6     7    1
    21     7     8    1
    22     8     9    1
    23     9    10    1
    24    10    11    1
    25    11    12   ar
    26    12    13   ar
    27    13    14   ar
    28    14    15    1
    29    14    16   ar
    30    16    17    1
    31    16    18   ar
    32    18    19    1
    33    32    33   ar
    34    33    34   ar
    35    34    35   ar
    36    35    30   ar
    37    28    22    1
    38     5     1   ar
    39    18    11   ar
    40    29    24    1
    41    10     3    1
    42    20    21    1
@<TRIPOS>MOLECULE
*****
 37 42 0 0 0
SMALL
GASTEIGER

@<TRIPOS>ATOM
      1 C         140.7282  139.4935  163.6113 C.ar    1  UNL1        0.2352
      2 N         140.9594  140.9320  163.2547 N.ar    1  UNL1       -0.1977
      3 C         142.4270  141.2124  163.3879 C.ar    1  UNL1        0.1428
      4 N         143.1026  139.9473  163.8268 N.ar    1  UNL1       -0.2348
      5 N         142.0528  138.8849  163.9650 N.ar    1  UNL1       -0.1330
      6 C         144.5587  139.7104  164.0986 C.3     1  UNL1        0.1289
      7 C         145.6987  140.6803  163.9984 C.3     1  UNL1        0.0264
      8 C         145.6640  142.1264  163.6018 C.3     1  UNL1        0.0028
      9 C         144.4810  142.9600  163.2074 C.3     1  UNL1        0.0121
     10 C         143.0404  142.5533  163.1122 C.3     1  UNL1        0.0828
     11 C         142.0871  143.6296  162.6848 C.ar    1  UNL1        0.0145
     12 C         141.2189  144.3096  163.7016 C.ar    1  UNL1        0.0008
     13 C         140.2656  145.3860  163.2742 C.ar    1  UNL1        0.0318
     14 C         140.1805  145.7824  161.8300 C.ar    1  UNL1        0.1696
     15 F         139.2272  146.8587  161.4026 F       1  UNL1       -0.2017
     16 C         141.0487  145.1024  160.8132 C.ar    1  UNL1        0.1943
     17 F         140.9636  145.4987  159.3690 F       1  UNL1       -0.1994
     18 C         142.0020  144.0260  161.2406 C.ar    1  UNL1        0.1660
     19 F         142.8702  143.3460  160.2238 F       1  UNL1       -0.2020
     20 N         139.4047  138.7875  163.6139 N.pl3   1  UNL1       -0.3033
     21 H         138.9934  138.5097  162.7637 H       1  UNL1        0.1496
     22 N         139.3370  138.8467  163.7426 N.pl3   1  UNL1       -0.2930
     23 C         139.0878  137.4297  164.1669 C.3     1  UNL1        0.0937
     24 C         138.3910  137.1469  165.4647 C.3     1  UNL1        0.0378
     25 C         137.6929  137.3332  166.7793 C.3     1  UNL1        0.0035
     26 C         137.5784  138.8060  167.0388 C.3     1  UNL1        0.0035
     27 C         138.2058  139.5301  165.8845 C.3     1  UNL1        0.0378
     28 C         138.8895  139.9809  164.6163 C.3     1  UNL1        0.0937
     29 C         138.7079  138.5048  164.9118 C.3     1  UNL1        0.0750
     30 C         140.3347  140.6045  160.3273 C.ar    1  UNL1        0.2293
     31 C         139.6379  140.3218  161.6252 C.ar    1  UNL1        0.0920
     32 C         140.0338  139.1295  162.4447 C.ar    1  UNL1        0.1381
     33 N         141.1265  138.2199  161.9664 N.ar    1  UNL1       -0.2088
     34 C         141.8233  138.5028  160.6685 C.ar    1  UNL1        0.2027
     35 N         141.4273  139.6951  159.8489 N.ar    1  UNL1       -0.1892
     36 C         138.6434  142.5007  159.7847 C.3     1  UNL1        0.2542
     37 O         139.9388  141.7969  159.5077 O.3     1  UNL1       -0.4560
@<TRIPOS>BOND
     1    36    37    1
     2    37    30    1
     3    30    31   ar
     4    31    32   ar
     5    32    22    1
     6    22    23    1
     7    24    23    1
     8    24    25    1
     9    25    26    1
    10    27    26    1
    11    27    28    1
    12    27    29    1
    13    29    20    1
    14    20     1    1
    15     1     2   ar
    16     2     3   ar
    17     3     4   ar
    18     4     5   ar
    19     4     6    1
    20     6     7    1
    21     7     8    1
    22     8     9    1
    23     9    10    1
    24    10    11    1
    25    11    12   ar
    26    12    13   ar
    27    13    14   ar
    28    14    15    1
    29    14    16   ar
    30    16    17    1
    31    16    18   ar
    32    18    19    1
    33    32    33   ar
    34    33    34   ar
    35    34    35   ar
    36    35    30   ar
    37    28    22    1
    38     5     1   ar
    39    18    11   ar
    40    29    24    1
    41    10     3    1
    42    20    21    1
@<TRIPOS>MOLECULE
*****
 37 42 0 0 0
SMALL
GASTEIGER

@<TRIPOS>ATOM
      1 C         140.9899  142.0491  163.8864 C.ar    1  UNL1        0.2352
      2 N         141.0813  142.0640  165.3835 N.ar    1  UNL1       -0.1977
      3 C         140.1413  141.0231  165.9156 C.ar    1  UNL1        0.1428
      4 N         139.4691  140.3650  164.7473 N.ar    1  UNL1       -0.2348
      5 N         139.9936  140.9991  163.4932 N.ar    1  UNL1       -0.1330
      6 C         138.4480  139.2661  164.7531 C.3     1  UNL1        0.1289
      7 C         137.8470  138.5541  165.9286 C.3     1  UNL1        0.0264
      8 C         138.1187  138.7650  167.3886 C.3     1  UNL1        0.0028
      9 C         139.0584  139.7401  168.0338 C.3     1  UNL1        0.0121
     10 C         139.9586  140.7450  167.3782 C.3     1  UNL1        0.0828
     11 C         140.7852  141.5826  168.3082 C.ar    1  UNL1        0.0145
     12 C         140.2530  142.8913  168.8124 C.ar    1  UNL1        0.0008
     13 C         141.0797  143.7290  169.7425 C.ar    1  UNL1        0.0318
     14 C         142.4387  143.2579  170.1684 C.ar    1  UNL1        0.1696
     15 F         143.2653  144.0955  171.0984 F       1  UNL1       -0.2017
     16 C         142.9709  141.9493  169.6642 C.ar    1  UNL1        0.1943
     17 F         144.3298  141.4782  170.0901 F       1  UNL1       -0.1994
     18 C         142.1442  141.1116  168.7341 C.ar    1  UNL1        0.1660
     19 F         142.6765  139.8029  168.2300 F       1  UNL1       -0.2020
     20 N         141.7598  142.9297  162.9473 N.pl3   1  UNL1       -0.3033
     21 H         142.6973  142.7195  162.7325 H       1  UNL1        0.1496
     22 N         141.6829  143.0644  162.9717 N.pl3   1  UNL1       -0.2930
     23 C         141.6441  143.2199  161.4802 C.3     1  UNL1        0.0937
     24 C         140.9857  144.4207  160.8682 C.3     1  UNL1        0.0378
     25 C         140.2558  145.7215  160.7092 C.3     1  UNL1        0.0035
     26 C         139.9204  146.2352  162.0779 C.3     1  UNL1        0.0035
     27 C         140.4430  145.2518  163.0830 C.3     1  UNL1        0.0378
     28 C         141.0632  144.1097  163.8510 C.3     1  UNL1        0.0937
     29 C         141.1014  144.1305  162.3354 C.3     1  UNL1        0.0750
     30 C         142.7716  139.3015  163.6082 C.ar    1  UNL1        0.2293
     31 C         142.1131  140.5024  162.9963 C.ar    1  UNL1        0.0920
     32 C         142.3414  141.8636  163.5836 C.ar    1  UNL1        0.1381
     33 N         143.2280  142.0240  164.7829 N.ar    1  UNL1       -0.2088
     34 C         143.8864  140.8231  165.3948 C.ar    1  UNL1        0.2027
     35 N         143.6582  139.4619  164.8074 N.ar    1  UNL1       -0.1892
     36 C         141.2243  137.2523  163.2124 C.3     1  UNL1        0.2542
     37 O         142.5434  137.9402  163.0209 O.3     1  UNL1       -0.4560
@<TRIPOS>BOND
     1    36    37    1
     2    37    30    1
     3    30    31   ar
     4    31    32   ar
     5    32    22    1
     6    22    23    1
     7    24    23    1
     8    24    25    1
     9    25    26    1
    10    27    26    1
    11    27    28    1
    12    27    29    1
    13    29    20    1
    14    20     1    1
    15     1     2   ar
    16     2     3   ar
    17     3     4   ar
    18     4     5   ar
    19     4     6    1
    20     6     7    1
    21     7     8    1
    22     8     9    1
    23     9    10    1
    24    10    11    1
    25    11    12   ar
    26    12    13   ar
    27    13    14   ar
    28    14    15    1
    29    14    16   ar
    30    16    17    1
    31    16    18   ar
    32    18    19    1
    33    32    33   ar
    34    33    34   ar
    35    34    35   ar
    36    35    30   ar
    37    28    22    1
    38     5     1   ar
    39    18    11   ar
    40    29    24    1
    41    10     3    1
    42    20    21    1
@<TRIPOS>MOLECULE
*****
 37 42 0 0 0
SMALL
GASTEIGER

@<TRIPOS>ATOM
      1 C         140.2866  141.2892  163.8946 C.ar    1  UNL1        0.2352
      2 N         140.4234  141.3218  165.3880 N.ar    1  UNL1       -0.1977
      3 C         141.5181  140.3716  165.7739 C.ar    1  UNL1        0.1428
      4 N         142.0578  139.7520  164.5192 N.ar    1  UNL1       -0.2348
      5 N         141.2967  140.3190  163.3576 N.ar    1  UNL1       -0.1330
      6 C         143.1571  138.7419  164.3728 C.3     1  UNL1        0.1289
      7 C         143.9882  138.1022  165.4453 C.3     1  UNL1        0.0264
      8 C         143.9252  138.3144  166.9288 C.3     1  UNL1        0.0028
      9 C         143.0156  139.2189  167.7064 C.3     1  UNL1        0.0121
     10 C         141.9443  140.1344  167.1924 C.3     1  UNL1        0.0828
     11 C         141.2010  140.9161  168.2347 C.ar    1  UNL1        0.0145
     12 C         139.9451  140.3586  168.8365 C.ar    1  UNL1        0.0008
     13 C         139.2017  141.1403  169.8788 C.ar    1  UNL1        0.0318
     14 C         139.7143  142.4794  170.3195 C.ar    1  UNL1        0.1696
     15 F         138.9710  143.2611  171.3618 F       1  UNL1       -0.2017
     16 C         140.9702  143.0368  169.7178 C.ar    1  UNL1        0.1943
     17 F         141.4828  144.3759  170.1584 F       1  UNL1       -0.1994
     18 C         141.7136  142.2552  168.6754 C.ar    1  UNL1        0.1660
     19 F         142.9695  142.8126  168.0737 F       1  UNL1       -0.2020
     20 N         139.3110  142.0869  163.0810 N.pl3   1  UNL1       -0.3033
     21 H         138.4329  141.7051  162.8521 H       1  UNL1        0.1496
     22 N         139.4055  142.1753  162.9920 N.pl3   1  UNL1       -0.2930
     23 C         138.6341  143.3613  163.4903 C.3     1  UNL1        0.0937
     24 C         138.9962  144.7407  163.0254 C.3     1  UNL1        0.0378
     25 C         139.6806  145.8754  162.3225 C.3     1  UNL1        0.0035
     26 C         140.7804  145.3023  161.4788 C.3     1  UNL1        0.0035
     27 C         140.7758  143.8133  161.6602 C.3     1  UNL1        0.0378
     28 C         140.5390  142.3686  162.0289 C.3     1  UNL1        0.0937
     29 C         139.6732  143.4662  162.6160 C.3     1  UNL1        0.0750
     30 C         138.0768  139.2175  165.2803 C.ar    1  UNL1        0.2293
     31 C         138.4390  140.5969  164.8153 C.ar    1  UNL1        0.0920
     32 C         139.0433  140.7958  163.4570 C.ar    1  UNL1        0.1381
     33 N         139.2855  139.6155  162.5636 N.ar    1  UNL1       -0.2088
     34 C         138.9233  138.2362  163.0286 C.ar    1  UNL1        0.2027
     35 N         138.3189  138.0372  164.3870 N.ar    1  UNL1       -0.1892
     36 C         137.2735  137.6320  167.1753 C.3     1  UNL1        0.2542
     37 O         137.4724  139.0186  166.6387 O.3     1  UNL1       -0.4560
@<TRIPOS>BOND
     1    36    37    1
     2    37    30    1
     3    30    31   ar
     4    31    32   ar
     5    32    22    1
     6    22    23    1
     7    24    23    1
     8    24    25    1
     9    25    26    1
    10    27    26    1
    11    27    28    1
    12    27    29    1
    13    29    20    1
    14    20     1    1
    15     1     2   ar
    16     2     3   ar
    17     3     4   ar
    18     4     5   ar
    19     4     6    1
    20     6     7    1
    21     7     8    1
    22     8     9    1
    23     9    10    1
    24    10    11    1
    25    11    12   ar
    26    12    13   ar
    27    13    14   ar
    28    14    15    1
    29    14    16   ar
    30    16    17    1
    31    16    18   ar
    32    18    19    1
    33    32    33   ar
    34    33    34   ar
    35    34    35   ar
    36    35    30   ar
    37    28    22    1
    38     5     1   ar
    39    18    11   ar
    40    29    24    1
    41    10     3    1
    42    20    21    1
@<TRIPOS>MOLECULE
*****
 37 42 0 0 0
SMALL
GASTEIGER

@<TRIPOS>ATOM
      1 C         139.8748  139.3072  163.1488 C.ar    1  UNL1        0.2352
      2 N         140.4322  140.6837  162.9372 N.ar    1  UNL1       -0.1977
      3 C         139.9080  141.2001  161.6301 C.ar    1  UNL1        0.1428
      4 N         139.0268  140.1429  161.0339 N.ar    1  UNL1       -0.2348
      5 N         139.0062  138.9730  161.9724 N.ar    1  UNL1       -0.1330
      6 C         138.2703  140.1768  159.7390 C.3     1  UNL1        0.1289
      7 C         138.2084  141.2765  158.7206 C.3     1  UNL1        0.0264
      8 C         138.8875  142.6136  158.7456 C.3     1  UNL1        0.0028
      9 C         139.7964  143.1815  159.7951 C.3     1  UNL1        0.0121
     10 C         140.2506  142.5525  161.0788 C.3     1  UNL1        0.0828
     11 C         141.1686  143.3859  161.9229 C.ar    1  UNL1        0.0145
     12 C         140.6061  144.2610  163.0035 C.ar    1  UNL1        0.0008
     13 C         141.5242  145.0945  163.8477 C.ar    1  UNL1        0.0318
     14 C         143.0048  145.0529  163.6111 C.ar    1  UNL1        0.1696
     15 F         143.9229  145.8863  164.4551 F       1  UNL1       -0.2017
     16 C         143.5674  144.1778  162.5304 C.ar    1  UNL1        0.1943
     17 F         145.0480  144.1362  162.2938 F       1  UNL1       -0.1994
     18 C         142.6493  143.3443  161.6863 C.ar    1  UNL1        0.1660
     19 F         143.2118  142.4693  160.6056 F       1  UNL1       -0.2020
     20 N         140.1395  138.4207  164.3294 N.pl3   1  UNL1       -0.3033
     21 H         140.9657  137.8868  164.3686 H       1  UNL1        0.1496
     22 N         140.0734  138.4936  164.4518 N.pl3   1  UNL1       -0.2930
     23 C         139.2549  137.2520  164.6484 C.3     1  UNL1        0.0937
     24 C         138.2609  137.1788  165.7693 C.3     1  UNL1        0.0378
     25 C         137.4301  137.5391  166.9652 C.3     1  UNL1        0.0035
     26 C         137.8012  138.9304  167.3852 C.3     1  UNL1        0.0035
     27 C         138.8614  139.4300  166.4489 C.3     1  UNL1        0.0378
     28 C         139.8977  139.6618  165.3760 C.3     1  UNL1        0.0937
     29 C         139.1454  138.3475  165.4503 C.3     1  UNL1        0.0750
     30 C         143.2657  139.5262  162.3321 C.ar    1  UNL1        0.2293
     31 C         142.2716  139.4530  163.4530 C.ar    1  UNL1        0.0920
     32 C         141.0675  138.5668  163.3308 C.ar    1  UNL1        0.1381
     33 N         140.8575  137.7539  162.0879 N.ar    1  UNL1       -0.2088
     34 C         141.8516  137.8271  160.9670 C.ar    1  UNL1        0.2027
     35 N         143.0558  138.7133  161.0891 N.ar    1  UNL1       -0.1892
     36 C         145.0491  140.7084  163.8058 C.3     1  UNL1        0.2542
     37 O         144.4698  140.4124  162.4542 O.3     1  UNL1       -0.4560
@<TRIPOS>BOND
     1    36    37    1
     2    37    30    1
     3    30    31   ar
     4    31    32   ar
     5    32    22    1
     6    22    23    1
     7    24    23    1
     8    24    25    1
     9    25    26    1
    10    27    26    1
    11    27    28    1
    12    27    29    1
    13    29    20    1
    14    20     1    1
    15     1     2   ar
    16     2     3   ar
    17     3     4   ar
    18     4     5   ar
    19     4     6    1
    20     6     7    1
    21     7     8    1
    22     8     9    1
    23     9    10    1
    24    10    11    1
    25    11    12   ar
    26    12    13   ar
    27    13    14   ar
    28    14    15    1
    29    14    16   ar
    30    16    17    1
    31    16    18   ar
    32    18    19    1
    33    32    33   ar
    34    33    34   ar
    35    34    35   ar
    36    35    30   ar
    37    28    22    1
    38     5     1   ar
    39    18    11   ar
    40    29    24    1
    41    10     3    1
    42    20    21    1
@<TRIPOS>MOLECULE
*****
 37 42 0 0 0
SMALL
GASTEIGER

@<TRIPOS>ATOM
      1 C         140.6458  140.6216  166.1028 C.ar    1  UNL1        0.2352
      2 N         140.8308  141.5762  164.9606 N.ar    1  UNL1       -0.1977
      3 C         141.8908  141.0184  164.0575 C.ar    1  UNL1        0.1428
      4 N         142.3607  139.7193  164.6416 N.ar    1  UNL1       -0.2348
      5 N         141.5913  139.4740  165.9056 N.ar    1  UNL1       -0.1330
      6 C         143.4057  138.7807  164.1150 C.3     1  UNL1        0.1289
      7 C         144.2388  138.9097  162.8742 C.3     1  UNL1        0.0264
      8 C         144.2325  140.0089  161.8537 C.3     1  UNL1        0.0028
      9 C         143.3918  141.2508  161.8218 C.3     1  UNL1        0.0121
     10 C         142.3496  141.7001  162.8026 C.3     1  UNL1        0.0828
     11 C         141.6774  143.0032  162.4867 C.ar    1  UNL1        0.0145
     12 C         141.7322  144.1334  163.4713 C.ar    1  UNL1        0.0008
     13 C         141.0600  145.4367  163.1555 C.ar    1  UNL1        0.0318
     14 C         140.3329  145.6097  161.8548 C.ar    1  UNL1        0.1696
     15 F         139.6608  146.9128  161.5389 F       1  UNL1       -0.2017
     16 C         140.2782  144.4795  160.8701 C.ar    1  UNL1        0.1943
     17 F         139.5512  144.6524  159.5696 F       1  UNL1       -0.1994
     18 C         140.9504  143.1762  161.1860 C.ar    1  UNL1        0.1660
     19 F         140.8956  142.0460  160.2014 F       1  UNL1       -0.2020
     20 N         139.6840  140.7859  167.2421 N.pl3   1  UNL1       -0.3033
     21 H         138.7410  140.5257  167.1316 H       1  UNL1        0.1496
     22 N         139.7525  140.9059  167.3169 N.pl3   1  UNL1       -0.2930
     23 C         139.5840  140.1123  168.5786 C.3     1  UNL1        0.0937
     24 C         140.0590  140.6729  169.8862 C.3     1  UNL1        0.0378
     25 C         140.6556  141.5894  170.9130 C.3     1  UNL1        0.0035
     26 C         141.1243  142.8293  170.2112 C.3     1  UNL1        0.0035
     27 C         140.8174  142.6793  168.7505 C.3     1  UNL1        0.0378
     28 C         140.3959  142.2600  167.3629 C.3     1  UNL1        0.0937
     29 C         140.1590  141.3466  168.5497 C.3     1  UNL1        0.0750
     30 C         138.1490  140.6828  163.6935 C.ar    1  UNL1        0.2293
     31 C         138.6240  141.2435  165.0012 C.ar    1  UNL1        0.0920
     32 C         139.2775  140.3452  166.0091 C.ar    1  UNL1        0.1381
     33 N         139.4560  138.8863  165.7096 N.ar    1  UNL1       -0.2088
     34 C         138.9809  138.3257  164.4018 C.ar    1  UNL1        0.2027
     35 N         138.3274  139.2240  163.3938 N.ar    1  UNL1       -0.1892
     36 C         137.5865  143.0705  162.8377 C.3     1  UNL1        0.2542
     37 O         137.4955  141.5811  162.6854 O.3     1  UNL1       -0.4560
@<TRIPOS>BOND
     1    36    37    1
     2    37    30    1
     3    30    31   ar
     4    31    32   ar
     5    32    22    1
     6    22    23    1
     7    24    23    1
     8    24    25    1
     9    25    26    1
    10    27    26    1
    11    27    28    1
    12    27    29    1
    13    29    20    1
    14    20     1    1
    15     1     2   ar
    16     2     3   ar
    17     3     4   ar
    18     4     5   ar
    19     4     6    1
    20     6     7    1
    21     7     8    1
    22     8     9    1
    23     9    10    1
    24    10    11    1
    25    11    12   ar
    26    12    13   ar
    27    13    14   ar
    28    14    15    1
    29    14    16   ar
    30    16    17    1
    31    16    18   ar
    32    18    19    1
    33    32    33   ar
    34    33    34   ar
    35    34    35   ar
    36    35    30   ar
    37    28    22    1
    38     5     1   ar
    39    18    11   ar
    40    29    24    1
    41    10     3    1
    42    20    21    1
@<TRIPOS>MOLECULE
*****
 37 42 0 0 0
SMALL
GASTEIGER

@<TRIPOS>ATOM
      1 C         141.9869  140.6744  166.1010 C.ar    1  UNL1        0.2352
      2 N         141.2304  140.8951  164.8246 N.ar    1  UNL1       -0.1977
      3 C         141.7993  142.1097  164.1528 C.ar    1  UNL1        0.1428
      4 N         142.9072  142.6394  165.0140 N.ar    1  UNL1       -0.2348
      5 N         143.0232  141.7524  166.2180 N.ar    1  UNL1       -0.1330
      6 C         143.7843  143.8337  164.7799 C.3     1  UNL1        0.1289
      7 C         143.7699  144.7930  163.6267 C.3     1  UNL1        0.0264
      8 C         142.8749  144.7949  162.4231 C.3     1  UNL1        0.0028
      9 C         141.7733  143.8382  162.0750 C.3     1  UNL1        0.0121
     10 C         141.2946  142.6431  162.8449 C.3     1  UNL1        0.0828
     11 C         140.1614  141.8807  162.2248 C.ar    1  UNL1        0.0145
     12 C         138.7622  142.0746  162.7292 C.ar    1  UNL1        0.0008
     13 C         137.6289  141.3122  162.1091 C.ar    1  UNL1        0.0318
     14 C         137.8949  140.3558  160.9845 C.ar    1  UNL1        0.1696
     15 F         136.7618  139.5935  160.3644 F       1  UNL1       -0.2017
     16 C         139.2942  140.1619  160.4801 C.ar    1  UNL1        0.1943
     17 F         139.5603  139.2056  159.3555 F       1  UNL1       -0.1994
     18 C         140.4275  140.9244  161.1002 C.ar    1  UNL1        0.1660
     19 F         141.8267  140.7304  160.5958 F       1  UNL1       -0.2020
     20 N         141.7487  139.5695  167.0872 N.pl3   1  UNL1       -0.3033
     21 H         142.0896  138.6642  166.9039 H       1  UNL1        0.1496
     22 N         141.6115  139.6088  167.1526 N.pl3   1  UNL1       -0.2930
     23 C         142.3069  139.5142  168.4783 C.3     1  UNL1        0.0937
     24 C         141.5496  139.7885  169.7437 C.3     1  UNL1        0.0378
     25 C         140.4461  140.1321  170.6999 C.3     1  UNL1        0.0035
     26 C         139.2060  140.3997  169.8997 C.3     1  UNL1        0.0035
     27 C         139.5430  140.2215  168.4489 C.3     1  UNL1        0.0378
     28 C         140.1589  139.9777  167.0923 C.3     1  UNL1        0.0937
     29 C         140.9914  139.8438  168.3525 C.3     1  UNL1        0.0750
     30 C         142.4309  138.4248  163.4544 C.ar    1  UNL1        0.2293
     31 C         141.6735  138.6991  164.7198 C.ar    1  UNL1        0.0920
     32 C         142.3689  139.3345  165.8872 C.ar    1  UNL1        0.1381
     33 N         143.8215  139.6956  165.7892 N.ar    1  UNL1       -0.2088
     34 C         144.5787  139.4212  164.5238 C.ar    1  UNL1        0.2027
     35 N         143.8834  138.7858  163.3564 N.ar    1  UNL1       -0.1892
     36 C         142.4373  137.6781  160.9659 C.3     1  UNL1        0.2542
     37 O         141.7356  137.7894  162.2870 O.3     1  UNL1       -0.4560
@<TRIPOS>BOND
     1    36    37    1
     2    37    30    1
     3    30    31   ar
     4    31    32   ar
     5    32    22    1
     6    22    23    1
     7    24    23    1
     8    24    25    1
     9    25    26    1
    10    27    26    1
    11    27    28    1
    12    27    29    1
    13    29    20    1
    14    20     1    1
    15     1     2   ar
    16     2     3   ar
    17     3     4   ar
    18     4     5   ar
    19     4     6    1
    20     6     7    1
    21     7     8    1
    22     8     9    1
    23     9    10    1
    24    10    11    1
    25    11    12   ar
    26    12    13   ar
    27    13    14   ar
    28    14    15    1
    29    14    16   ar
    30    16    17    1
    31    16    18   ar
    32    18    19    1
    33    32    33   ar
    34    33    34   ar
    35    34    35   ar
    36    35    30   ar
    37    28    22    1
    38     5     1   ar
    39    18    11   ar
    40    29    24    1
    41    10     3    1
    42    20    21    1
@<TRIPOS>MOLECULE
*****
 37 42 0 0 0
SMALL
GASTEIGER

@<TRIPOS>ATOM
      1 C         141.8982  140.1890  164.8694 C.ar    1  UNL1        0.2352
      2 N         141.1405  141.1986  164.0592 N.ar    1  UNL1       -0.1977
      3 C         140.0968  140.4682  163.2671 C.ar    1  UNL1        0.1428
      4 N         140.2095  139.0074  163.5879 N.ar    1  UNL1       -0.2348
      5 N         141.3228  138.8347  164.5782 N.ar    1  UNL1       -0.1330
      6 C         139.3932  137.8671  163.0553 C.3     1  UNL1        0.1289
      7 C         138.2624  137.9064  162.0704 C.3     1  UNL1        0.0264
      8 C         137.6690  139.0954  161.3749 C.3     1  UNL1        0.0028
      9 C         138.0594  140.5389  161.4924 C.3     1  UNL1        0.0121
     10 C         139.1399  141.1499  162.3345 C.3     1  UNL1        0.0828
     11 C         139.2824  142.6394  162.2303 C.ar    1  UNL1        0.0145
     12 C         138.5407  143.5321  163.1806 C.ar    1  UNL1        0.0008
     13 C         138.6831  145.0218  163.0764 C.ar    1  UNL1        0.0318
     14 C         139.5673  145.6187  162.0218 C.ar    1  UNL1        0.1696
     15 F         139.7098  147.1082  161.9176 F       1  UNL1       -0.2017
     16 C         140.3090  144.7260  161.0715 C.ar    1  UNL1        0.1943
     17 F         141.1931  145.3228  160.0170 F       1  UNL1       -0.1994
     18 C         140.1666  143.2364  161.1758 C.ar    1  UNL1        0.1660
     19 F         140.9082  142.3437  160.2255 F       1  UNL1       -0.2020
     20 N         143.0323  140.4822  165.8065 N.pl3   1  UNL1       -0.3033
     21 H         143.9335  140.6545  165.4497 H       1  UNL1        0.1496
     22 N         143.0150  140.3994  165.9388 N.pl3   1  UNL1       -0.2930
     23 C         142.8393  141.7122  166.6430 C.3     1  UNL1        0.0937
     24 C         142.6002  141.7430  168.1235 C.3     1  UNL1        0.0378
     25 C         142.3928  141.3093  169.5444 C.3     1  UNL1        0.0035
     26 C         142.4576  139.8113  169.5860 C.3     1  UNL1        0.0035
     27 C         142.7050  139.3192  168.1908 C.3     1  UNL1        0.0378
     28 C         142.9515  139.1176  166.7151 C.3     1  UNL1        0.0937
     29 C         142.7932  140.5129  167.2869 C.3     1  UNL1        0.0750
     30 C         143.7075  139.0277  162.2797 C.ar    1  UNL1        0.2293
     31 C         143.4684  139.0584  163.7603 C.ar    1  UNL1        0.0920
     32 C         143.2541  140.3687  164.4582 C.ar    1  UNL1        0.1381
     33 N         143.2788  141.6482  163.6758 N.ar    1  UNL1       -0.2088
     34 C         143.5179  141.6174  162.1953 C.ar    1  UNL1        0.2027
     35 N         143.7323  140.3071  161.4973 N.ar    1  UNL1       -0.1892
     36 C         143.1771  137.4111  160.3162 C.3     1  UNL1        0.2542
     37 O         143.9219  137.7174  161.5817 O.3     1  UNL1       -0.4560
@<TRIPOS>BOND
     1    36    37    1
     2    37    30    1
     3    30    31   ar
     4    31    32   ar
     5    32    22    1
     6    22    23    1
     7    24    23    1
     8    24    25    1
     9    25    26    1
    10    27    26    1
    11    27    28    1
    12    27    29    1
    13    29    20    1
    14    20     1    1
    15     1     2   ar
    16     2     3   ar
    17     3     4   ar
    18     4     5   ar
    19     4     6    1
    20     6     7    1
    21     7     8    1
    22     8     9    1
    23     9    10    1
    24    10    11    1
    25    11    12   ar
    26    12    13   ar
    27    13    14   ar
    28    14    15    1
    29    14    16   ar
    30    16    17    1
    31    16    18   ar
    32    18    19    1
    33    32    33   ar
    34    33    34   ar
    35    34    35   ar
    36    35    30   ar
    37    28    22    1
    38     5     1   ar
    39    18    11   ar
    40    29    24    1
    41    10     3    1
    42    20    21    1
@<TRIPOS>MOLECULE
*****
 37 42 0 0 0
SMALL
GASTEIGER

@<TRIPOS>ATOM
      1 C         140.6091  140.5478  166.0733 C.ar    1  UNL1        0.2352
      2 N         140.7555  141.4513  164.8849 N.ar    1  UNL1       -0.1977
      3 C         141.8411  140.8958  164.0114 C.ar    1  UNL1        0.1428
      4 N         142.3655  139.6492  164.6598 N.ar    1  UNL1       -0.2348
      5 N         141.6041  139.4340  165.9342 N.ar    1  UNL1       -0.1330
      6 C         143.4517  138.7320  164.1813 C.3     1  UNL1        0.1289
      7 C         144.2817  138.8350  162.9360 C.3     1  UNL1        0.0264
      8 C         144.2304  139.8807  161.8619 C.3     1  UNL1        0.0028
      9 C         143.3365  141.0816  161.7676 C.3     1  UNL1        0.0121
     10 C         142.2732  141.5334  162.7242 C.3     1  UNL1        0.0828
     11 C         141.5458  142.7886  162.3432 C.ar    1  UNL1        0.0145
     12 C         140.5689  142.7733  161.2051 C.ar    1  UNL1        0.0008
     13 C         139.8414  144.0287  160.8241 C.ar    1  UNL1        0.0318
     14 C         140.0909  145.2993  161.5813 C.ar    1  UNL1        0.1696
     15 F         139.3635  146.5545  161.2003 F       1  UNL1       -0.2017
     16 C         141.0678  145.3146  162.7194 C.ar    1  UNL1        0.1943
     17 F         141.3174  146.5851  163.4766 F       1  UNL1       -0.1994
     18 C         141.7953  144.0593  163.1004 C.ar    1  UNL1        0.1660
     19 F         142.7722  144.0746  164.2386 F       1  UNL1       -0.2020
     20 N         139.6381  140.7266  167.2025 N.pl3   1  UNL1       -0.3033
     21 H         138.7221  140.3743  167.1245 H       1  UNL1        0.1496
     22 N         139.6975  140.8577  167.2654 N.pl3   1  UNL1       -0.2930
     23 C         139.5729  140.1798  168.5978 C.3     1  UNL1        0.0937
     24 C         139.9974  140.8953  169.8458 C.3     1  UNL1        0.0378
     25 C         140.5214  141.9454  170.7802 C.3     1  UNL1        0.0035
     26 C         140.9103  143.1412  169.9624 C.3     1  UNL1        0.0035
     27 C         140.6267  142.8301  168.5226 C.3     1  UNL1        0.0378
     28 C         140.2466  142.2509  167.1813 C.3     1  UNL1        0.0937
     29 C         140.0626  141.4422  168.4506 C.3     1  UNL1        0.0750
     30 C         138.1461  140.1768  163.6766 C.ar    1  UNL1        0.2293
     31 C         138.5707  140.8924  164.9248 C.ar    1  UNL1        0.0920
     32 C         139.2730  140.1421  166.0173 C.ar    1  UNL1        0.1381
     33 N         139.5508  138.6762  165.8619 N.ar    1  UNL1       -0.2088
     34 C         139.1262  137.9607  164.6137 C.ar    1  UNL1        0.2027
     35 N         138.4239  138.7111  163.5211 N.ar    1  UNL1       -0.1892
     36 C         137.6254  140.5136  161.1536 C.3     1  UNL1        0.2542
     37 O         137.4438  140.9271  162.5840 O.3     1  UNL1       -0.4560
@<TRIPOS>BOND
     1    36    37    1
     2    37    30    1
     3    30    31   ar
     4    31    32   ar
     5    32    22    1
     6    22    23    1
     7    24    23    1
     8    24    25    1
     9    25    26    1
    10    27    26    1
    11    27    28    1
    12    27    29    1
    13    29    20    1
    14    20     1    1
    15     1     2   ar
    16     2     3   ar
    17     3     4   ar
    18     4     5   ar
    19     4     6    1
    20     6     7    1
    21     7     8    1
    22     8     9    1
    23     9    10    1
    24    10    11    1
    25    11    12   ar
    26    12    13   ar
    27    13    14   ar
    28    14    15    1
    29    14    16   ar
    30    16    17    1
    31    16    18   ar
    32    18    19    1
    33    32    33   ar
    34    33    34   ar
    35    34    35   ar
    36    35    30   ar
    37    28    22    1
    38     5     1   ar
    39    18    11   ar
    40    29    24    1
    41    10     3    1
    42    20    21    1
