@<TRIPOS>MOLECULE
*****
 35 39 0 0 0
SMALL
GASTEIGER

@<TRIPOS>ATOM
      1 O         141.5101  139.1785  159.3771 O.2     1  UNL1       -0.2706
      2 C         142.3520  137.9549  159.1672 C.2     1  UNL1        0.2701
      3 N         142.9800  137.2658  160.3422 N.am    1  UNL1       -0.2999
      4 H         143.5325  136.4628  160.2044 H       1  UNL1        0.1496
      5 C         142.7661  137.8004  161.7273 C.3     1  UNL1        0.1035
      6 C         141.7249  137.6075  162.7897 C.3     1  UNL1        0.0933
      7 N         142.4637  138.5565  163.6861 N.3     1  UNL1       -0.2711
      8 C         143.5049  138.7495  162.6238 C.3     1  UNL1        0.0933
      9 C         142.2498  139.0911  165.0712 C.3     1  UNL1        0.0576
     10 C         141.2325  140.1671  165.3111 C.3     1  UNL1        0.0163
     11 C         141.0186  140.7017  166.6962 C.3     1  UNL1        0.0063
     12 C         141.8220  140.1603  167.8414 C.3     1  UNL1        0.0301
     13 C         142.8392  139.0842  167.6015 C.3     1  UNL1        0.0063
     14 C         143.0531  138.5497  166.2164 C.3     1  UNL1        0.0163
     15 C         141.6082  140.6947  169.2265 C.ar    1  UNL1        0.0275
     16 C         140.6658  140.1365  170.2514 C.ar    1  UNL1        0.1016
     17 N         140.7745  140.9781  171.4883 N.ar    1  UNL1       -0.2351
     18 C         141.7840  142.0566  171.2278 C.ar    1  UNL1        0.1342
     19 S         142.2992  141.8815  169.8300 S.2     1  UNL1       -0.0688
     20 C         142.5659  137.4203  157.7821 C.3     1  UNL1        0.2850
     21 N         141.3933  137.2062  156.8714 N.pl3   1  UNL1       -0.2091
     22 H         140.5857  137.7605  156.9700 H       1  UNL1        0.2928
     23 C         141.4511  136.1473  155.8105 C.2     1  UNL1        0.3493
     24 N         140.6554  136.1287  154.5391 N.2     1  UNL1        0.0798
     25 N         141.0275  134.8911  153.7776 N.2     1  UNL1       -0.0381
     26 C         142.0531  134.1448  154.5783 C.2     1  UNL1        0.1169
     27 C         142.7824  132.8586  154.3257 C.3     1  UNL1        0.0759
     28 C         143.7735  132.3489  155.3296 C.2     1  UNL1       -0.0158
     29 C         144.0354  133.1253  156.5860 C.2     1  UNL1        0.0678
     30 C         143.3061  134.4115  156.8386 C.2     1  UNL1        0.0123
     31 C         142.3149  134.9212  155.8348 C.2     1  UNL1        0.1019
     32 C         145.0266  132.6155  157.5899 C.3     1  UNL1        0.4183
     33 F         146.0177  132.1057  158.5937 F       1  UNL1       -0.1659
     34 F         145.5819  131.6734  156.5632 F       1  UNL1       -0.1659
     35 F         144.4713  133.5576  158.6165 F       1  UNL1       -0.1659
@<TRIPOS>BOND
     1     1     2    2
     2     2    20    1
     3    20    21    1
     4    21    23    1
     5    23    24    2
     6    24    25    1
     7    25    26    2
     8    26    27    1
     9    27    28    1
    10    28    29    2
    11    29    32    1
    12    32    33    1
    13    32    34    1
    14    32    35    1
    15    29    30    1
    16    30    31    2
    17     2     3   am
    18     3     5    1
    19     5     6    1
    20     6     7    1
    21     9     7    1
    22     9    10    1
    23    10    11    1
    24    11    12    1
    25    12    15    1
    26    15    16   ar
    27    16    17   ar
    28    17    18   ar
    29    18    19   ar
    30    12    13    1
    31    13    14    1
    32     7     8    1
    33    31    23    1
    34     8     5    1
    35    31    26    1
    36    14     9    1
    37    19    15   ar
    38    21    22    1
    39     3     4    1
@<TRIPOS>MOLECULE
*****
 35 39 0 0 0
SMALL
GASTEIGER

@<TRIPOS>ATOM
      1 O         141.4796  139.4856  159.2312 O.2     1  UNL1       -0.2706
      2 C         142.3728  138.3143  158.9481 C.2     1  UNL1        0.2701
      3 N         143.0115  137.5670  160.0811 N.am    1  UNL1       -0.2999
      4 H         143.5978  136.7983  159.8953 H       1  UNL1        0.1496
      5 C         142.7569  137.9911  161.4972 C.3     1  UNL1        0.1035
      6 C         143.3934  138.9656  162.4434 C.3     1  UNL1        0.0933
      7 N         142.3968  138.5908  163.4999 N.3     1  UNL1       -0.2711
      8 C         141.7602  137.6164  162.5538 C.3     1  UNL1        0.0933
      9 C         142.1422  139.0150  164.9160 C.3     1  UNL1        0.0576
     10 C         140.9003  139.7841  165.2568 C.3     1  UNL1        0.0163
     11 C         140.6457  140.2082  166.6729 C.3     1  UNL1        0.0063
     12 C         141.6329  139.8632  167.7482 C.3     1  UNL1        0.0301
     13 C         142.8749  139.0940  167.4073 C.3     1  UNL1        0.0063
     14 C         143.1294  138.6699  165.9913 C.3     1  UNL1        0.0163
     15 C         141.3784  140.2872  169.1642 C.ar    1  UNL1        0.0275
     16 C         140.0517  140.2736  169.8639 C.ar    1  UNL1        0.1016
     17 N         140.2594  140.7774  171.2615 N.ar    1  UNL1       -0.2351
     18 C         141.7145  141.1023  171.4255 C.ar    1  UNL1        0.1342
     19 S         142.4062  140.7994  170.1295 S.2     1  UNL1       -0.0688
     20 C         142.6275  137.8902  157.5320 C.3     1  UNL1        0.2850
     21 N         143.2490  136.5545  157.2493 N.pl3   1  UNL1       -0.2091
     22 H         144.1471  136.3464  157.5950 H       1  UNL1        0.2928
     23 C         142.5023  135.5360  156.4400 C.2     1  UNL1        0.3493
     24 N         141.4155  135.8234  155.4470 N.2     1  UNL1        0.0798
     25 N         140.9528  134.5162  154.8749 N.2     1  UNL1       -0.0381
     26 C         141.7536  133.4209  155.5145 C.2     1  UNL1        0.1169
     27 C         141.7345  131.9311  155.3410 C.3     1  UNL1        0.0759
     28 C         142.6731  131.0716  156.1349 C.2     1  UNL1       -0.0158
     29 C         143.6307  131.7018  157.1022 C.2     1  UNL1        0.0678
     30 C         143.6498  133.1916  157.2757 C.2     1  UNL1        0.0123
     31 C         142.7112  134.0512  156.4818 C.2     1  UNL1        0.1019
     32 C         144.5693  130.8422  157.8961 C.3     1  UNL1        0.4183
     33 F         145.5079  129.9826  158.6899 F       1  UNL1       -0.1659
     34 F         145.5560  131.9707  157.9516 F       1  UNL1       -0.1659
     35 F         143.5827  129.7138  157.8405 F       1  UNL1       -0.1659
@<TRIPOS>BOND
     1     1     2    2
     2     2    20    1
     3    20    21    1
     4    21    23    1
     5    23    24    2
     6    24    25    1
     7    25    26    2
     8    26    27    1
     9    27    28    1
    10    28    29    2
    11    29    32    1
    12    32    33    1
    13    32    34    1
    14    32    35    1
    15    29    30    1
    16    30    31    2
    17     2     3   am
    18     3     5    1
    19     5     6    1
    20     6     7    1
    21     9     7    1
    22     9    10    1
    23    10    11    1
    24    11    12    1
    25    12    15    1
    26    15    16   ar
    27    16    17   ar
    28    17    18   ar
    29    18    19   ar
    30    12    13    1
    31    13    14    1
    32     7     8    1
    33    31    23    1
    34     8     5    1
    35    31    26    1
    36    14     9    1
    37    19    15   ar
    38    21    22    1
    39     3     4    1
@<TRIPOS>MOLECULE
*****
 35 39 0 0 0
SMALL
GASTEIGER

@<TRIPOS>ATOM
      1 O         138.9561  142.1821  158.9959 O.2     1  UNL1       -0.2706
      2 C         138.0785  141.0843  158.4717 C.2     1  UNL1        0.2701
      3 N         137.5748  140.0190  159.3997 N.am    1  UNL1       -0.2999
      4 H         136.9988  139.2985  159.0557 H       1  UNL1        0.1496
      5 C         137.9486  140.0515  160.8520 C.3     1  UNL1        0.1035
      6 C         138.8982  139.2806  161.7204 C.3     1  UNL1        0.0933
      7 N         138.4773  140.0974  162.9059 N.3     1  UNL1       -0.2711
      8 C         137.5278  140.8684  162.0376 C.3     1  UNL1        0.0933
      9 C         138.8512  140.1299  164.3582 C.3     1  UNL1        0.0576
     10 C         138.2585  139.1314  165.3078 C.3     1  UNL1        0.0163
     11 C         138.6323  139.1639  166.7601 C.3     1  UNL1        0.0063
     12 C         139.5989  140.1948  167.2628 C.3     1  UNL1        0.0301
     13 C         140.1917  141.1933  166.3132 C.3     1  UNL1        0.0063
     14 C         139.8178  141.1609  164.8610 C.3     1  UNL1        0.0163
     15 C         139.9729  140.2274  168.7151 C.ar    1  UNL1        0.0275
     16 C         139.0383  140.4802  169.8608 C.ar    1  UNL1        0.1016
     17 N         139.8350  140.4219  171.1304 N.ar    1  UNL1       -0.2351
     18 C         141.2620  140.1330  170.7694 C.ar    1  UNL1        0.1342
     19 S         141.3472  140.0128  169.2766 S.2     1  UNL1       -0.0688
     20 C         137.7046  141.0519  157.0194 C.3     1  UNL1        0.2850
     21 N         136.5687  140.1884  156.5565 N.pl3   1  UNL1       -0.2091
     22 H         136.5509  139.2319  156.7891 H       1  UNL1        0.2928
     23 C         135.4600  140.7822  155.7390 C.2     1  UNL1        0.3493
     24 N         135.6256  141.6709  154.5421 N.2     1  UNL1        0.0798
     25 N         134.2590  142.0295  154.0384 N.2     1  UNL1       -0.0381
     26 C         133.2487  141.3623  154.9240 C.2     1  UNL1        0.1169
     27 C         131.7489  141.3572  154.9092 C.3     1  UNL1        0.0759
     28 C         130.9912  140.5812  155.9454 C.2     1  UNL1       -0.0158
     29 C         131.7335  139.8104  156.9965 C.2     1  UNL1        0.0678
     30 C         133.2334  139.8155  157.0113 C.2     1  UNL1        0.0123
     31 C         133.9910  140.5915  155.9751 C.2     1  UNL1        0.1019
     32 C         130.9758  139.0343  158.0328 C.3     1  UNL1        0.4183
     33 F         130.2181  138.2584  159.0690 F       1  UNL1       -0.1659
     34 F         132.2424  138.3419  158.4404 F       1  UNL1       -0.1659
     35 F         129.7092  139.7268  157.6251 F       1  UNL1       -0.1659
@<TRIPOS>BOND
     1     1     2    2
     2     2    20    1
     3    20    21    1
     4    21    23    1
     5    23    24    2
     6    24    25    1
     7    25    26    2
     8    26    27    1
     9    27    28    1
    10    28    29    2
    11    29    32    1
    12    32    33    1
    13    32    34    1
    14    32    35    1
    15    29    30    1
    16    30    31    2
    17     2     3   am
    18     3     5    1
    19     5     6    1
    20     6     7    1
    21     9     7    1
    22     9    10    1
    23    10    11    1
    24    11    12    1
    25    12    15    1
    26    15    16   ar
    27    16    17   ar
    28    17    18   ar
    29    18    19   ar
    30    12    13    1
    31    13    14    1
    32     7     8    1
    33    31    23    1
    34     8     5    1
    35    31    26    1
    36    14     9    1
    37    19    15   ar
    38    21    22    1
    39     3     4    1
@<TRIPOS>MOLECULE
*****
 35 39 0 0 0
SMALL
GASTEIGER

@<TRIPOS>ATOM
      1 O         138.5732  139.4032  159.1315 O.2     1  UNL1       -0.2706
      2 C         139.8213  138.8402  158.5190 C.2     1  UNL1        0.2701
      3 N         141.0151  138.5515  159.3801 N.am    1  UNL1       -0.2999
      4 H         141.8343  138.1819  158.9780 H       1  UNL1        0.1496
      5 C         140.9607  138.8258  160.8538 C.3     1  UNL1        0.1035
      6 C         141.3192  139.9892  161.7300 C.3     1  UNL1        0.0933
      7 N         140.8837  139.2138  162.9379 N.3     1  UNL1       -0.2711
      8 C         140.5252  138.0503  162.0617 C.3     1  UNL1        0.0933
      9 C         140.8293  139.4881  164.4116 C.3     1  UNL1        0.0576
     10 C         141.9920  139.1226  165.2860 C.3     1  UNL1        0.0163
     11 C         141.9376  139.3969  166.7597 C.3     1  UNL1        0.0063
     12 C         140.7206  140.0368  167.3590 C.3     1  UNL1        0.0301
     13 C         139.5579  140.4024  166.4845 C.3     1  UNL1        0.0063
     14 C         139.6123  140.1280  165.0109 C.3     1  UNL1        0.0163
     15 C         140.6661  140.3112  168.8326 C.ar    1  UNL1        0.0275
     16 C         139.4273  140.3467  169.6778 C.ar    1  UNL1        0.1016
     17 N         139.8365  140.6558  171.0874 N.ar    1  UNL1       -0.2351
     18 C         141.3282  140.8113  171.1135 C.ar    1  UNL1        0.1342
     19 S         141.8409  140.5984  169.7200 S.2     1  UNL1       -0.0688
     20 C         139.8757  138.5658  157.0453 C.3     1  UNL1        0.2850
     21 N         139.1256  137.4005  156.4711 N.pl3   1  UNL1       -0.2091
     22 H         138.3131  137.0697  156.9179 H       1  UNL1        0.2928
     23 C         139.6135  136.7393  155.2162 C.2     1  UNL1        0.3493
     24 N         139.0143  136.8909  153.8495 N.2     1  UNL1        0.0798
     25 N         139.8167  136.0557  152.8963 N.2     1  UNL1       -0.0381
     26 C         140.9118  135.3879  153.6740 C.2     1  UNL1        0.1169
     27 C         142.0072  134.4497  153.2618 C.3     1  UNL1        0.0759
     28 C         142.9769  133.9340  154.2833 C.2     1  UNL1       -0.0158
     29 C         142.8513  134.3565  155.7171 C.2     1  UNL1        0.0678
     30 C         141.7559  135.2947  156.1293 C.2     1  UNL1        0.0123
     31 C         140.7862  135.8104  155.1078 C.2     1  UNL1        0.1019
     32 C         143.8211  133.8407  156.7387 C.3     1  UNL1        0.4183
     33 F         144.7908  133.3250  157.7602 F       1  UNL1       -0.1659
     34 F         144.3614  132.8667  155.7341 F       1  UNL1       -0.1659
     35 F         143.2807  134.8147  157.7433 F       1  UNL1       -0.1659
@<TRIPOS>BOND
     1     1     2    2
     2     2    20    1
     3    20    21    1
     4    21    23    1
     5    23    24    2
     6    24    25    1
     7    25    26    2
     8    26    27    1
     9    27    28    1
    10    28    29    2
    11    29    32    1
    12    32    33    1
    13    32    34    1
    14    32    35    1
    15    29    30    1
    16    30    31    2
    17     2     3   am
    18     3     5    1
    19     5     6    1
    20     6     7    1
    21     9     7    1
    22     9    10    1
    23    10    11    1
    24    11    12    1
    25    12    15    1
    26    15    16   ar
    27    16    17   ar
    28    17    18   ar
    29    18    19   ar
    30    12    13    1
    31    13    14    1
    32     7     8    1
    33    31    23    1
    34     8     5    1
    35    31    26    1
    36    14     9    1
    37    19    15   ar
    38    21    22    1
    39     3     4    1
@<TRIPOS>MOLECULE
*****
 35 39 0 0 0
SMALL
GASTEIGER

@<TRIPOS>ATOM
      1 O         143.4505  138.6815  158.9784 O.2     1  UNL1       -0.2706
      2 C         143.6830  139.9687  158.2441 C.2     1  UNL1        0.2701
      3 N         143.7337  141.2640  158.9986 N.am    1  UNL1       -0.2999
      4 H         143.8863  142.1088  158.5167 H       1  UNL1        0.1496
      5 C         143.5518  141.2723  160.4876 C.3     1  UNL1        0.1035
      6 C         142.4543  141.6922  161.4198 C.3     1  UNL1        0.0933
      7 N         143.2947  141.2839  162.5932 N.3     1  UNL1       -0.2711
      8 C         144.3923  140.8639  161.6611 C.3     1  UNL1        0.0933
      9 C         143.1128  141.2921  164.0822 C.3     1  UNL1        0.0576
     10 C         143.4503  142.5217  164.8722 C.3     1  UNL1        0.0163
     11 C         143.2684  142.5299  166.3611 C.3     1  UNL1        0.0063
     12 C         142.7491  141.3085  167.0600 C.3     1  UNL1        0.0301
     13 C         142.4117  140.0788  166.2699 C.3     1  UNL1        0.0063
     14 C         142.5936  140.0707  164.7811 C.3     1  UNL1        0.0163
     15 C         142.5672  141.3166  168.5488 C.ar    1  UNL1        0.0275
     16 C         142.4551  142.5348  169.4169 C.ar    1  UNL1        0.1016
     17 N         142.2841  142.0789  170.8357 N.ar    1  UNL1       -0.2351
     18 C         142.2905  140.5789  170.8445 C.ar    1  UNL1        0.1342
     19 S         142.4655  140.1078  169.4312 S.2     1  UNL1       -0.0688
     20 C         143.8649  139.9604  156.7552 C.3     1  UNL1        0.2850
     21 N         144.2286  138.6868  156.0510 N.pl3   1  UNL1       -0.2091
     22 H         145.1745  138.4336  155.9489 H       1  UNL1        0.2928
     23 C         143.1511  137.7990  155.5025 C.2     1  UNL1        0.3493
     24 N         142.0167  138.2307  154.6212 N.2     1  UNL1        0.0798
     25 N         141.1834  137.0222  154.3130 N.2     1  UNL1       -0.0381
     26 C         141.8027  135.8436  155.0039 C.2     1  UNL1        0.1169
     27 C         141.4164  134.3952  155.0586 C.3     1  UNL1        0.0759
     28 C         142.2463  133.4270  155.8485 C.2     1  UNL1       -0.0158
     29 C         143.4624  133.9072  156.5836 C.2     1  UNL1        0.0678
     30 C         143.8487  135.3555  156.5290 C.2     1  UNL1        0.0123
     31 C         143.0189  136.3237  155.7391 C.2     1  UNL1        0.1019
     32 C         144.2923  132.9389  157.3735 C.3     1  UNL1        0.4183
     33 F         145.1221  131.9707  158.1634 F       1  UNL1       -0.1659
     34 F         144.4386  132.0725  156.1578 F       1  UNL1       -0.1659
     35 F         144.1459  133.8053  158.5892 F       1  UNL1       -0.1659
@<TRIPOS>BOND
     1     1     2    2
     2     2    20    1
     3    20    21    1
     4    21    23    1
     5    23    24    2
     6    24    25    1
     7    25    26    2
     8    26    27    1
     9    27    28    1
    10    28    29    2
    11    29    32    1
    12    32    33    1
    13    32    34    1
    14    32    35    1
    15    29    30    1
    16    30    31    2
    17     2     3   am
    18     3     5    1
    19     5     6    1
    20     6     7    1
    21     9     7    1
    22     9    10    1
    23    10    11    1
    24    11    12    1
    25    12    15    1
    26    15    16   ar
    27    16    17   ar
    28    17    18   ar
    29    18    19   ar
    30    12    13    1
    31    13    14    1
    32     7     8    1
    33    31    23    1
    34     8     5    1
    35    31    26    1
    36    14     9    1
    37    19    15   ar
    38    21    22    1
    39     3     4    1
@<TRIPOS>MOLECULE
*****
 35 39 0 0 0
SMALL
GASTEIGER

@<TRIPOS>ATOM
      1 O         138.1459  140.8484  158.1628 O.2     1  UNL1       -0.2706
      2 C         139.1837  141.6216  158.9211 C.2     1  UNL1        0.2701
      3 N         140.5886  141.1037  159.0099 N.am    1  UNL1       -0.2999
      4 H         141.2698  141.6112  159.5076 H       1  UNL1        0.1496
      5 C         140.9557  139.8125  158.3405 C.3     1  UNL1        0.1035
      6 C         140.6410  138.3659  158.5816 C.3     1  UNL1        0.0933
      7 N         141.4748  137.9865  157.3937 N.3     1  UNL1       -0.2711
      8 C         141.7895  139.4331  157.1526 C.3     1  UNL1        0.0933
      9 C         141.8418  136.6953  156.7243 C.3     1  UNL1        0.0576
     10 C         140.9663  136.1361  155.6423 C.3     1  UNL1        0.0163
     11 C         141.3333  134.8449  154.9729 C.3     1  UNL1        0.0063
     12 C         142.5758  134.1129  155.3855 C.3     1  UNL1        0.0301
     13 C         143.4513  134.6721  156.4676 C.3     1  UNL1        0.0063
     14 C         143.0843  135.9633  157.1369 C.3     1  UNL1        0.0163
     15 C         142.9429  132.8217  154.7162 C.ar    1  UNL1        0.0275
     16 C         142.5427  132.4004  153.3333 C.ar    1  UNL1        0.1016
     17 N         143.1272  131.0434  153.0747 N.ar    1  UNL1       -0.2351
     18 C         143.8886  130.6260  154.2978 C.ar    1  UNL1        0.1342
     19 S         143.7748  131.7250  155.3123 S.2     1  UNL1       -0.0688
     20 C         138.8167  142.9128  159.5905 C.3     1  UNL1        0.2850
     21 N         137.9645  142.9019  160.8249 N.pl3   1  UNL1       -0.2091
     22 H         137.0368  142.5753  160.7798 H       1  UNL1        0.2928
     23 C         138.5256  143.3887  162.1280 C.2     1  UNL1        0.3493
     24 N         138.9220  144.8002  162.4450 N.2     1  UNL1        0.0798
     25 N         139.4302  144.8332  163.8559 N.2     1  UNL1       -0.0381
     26 C         139.3481  143.4421  164.4109 C.2     1  UNL1        0.1169
     27 C         139.7101  142.8730  165.7506 C.3     1  UNL1        0.0759
     28 C         139.5130  141.4111  166.0225 C.2     1  UNL1       -0.0158
     29 C         138.9539  140.5183  164.9547 C.2     1  UNL1        0.0678
     30 C         138.5919  141.0874  163.6149 C.2     1  UNL1        0.0123
     31 C         138.7890  142.5493  163.3430 C.2     1  UNL1        0.1019
     32 C         138.7568  139.0563  165.2266 C.3     1  UNL1        0.4183
     33 F         138.5598  137.5944  165.4985 F       1  UNL1       -0.1659
     34 F         137.6213  139.3813  166.1512 F       1  UNL1       -0.1659
     35 F         139.8924  138.7313  164.3020 F       1  UNL1       -0.1659
@<TRIPOS>BOND
     1     1     2    2
     2     2    20    1
     3    20    21    1
     4    21    23    1
     5    23    24    2
     6    24    25    1
     7    25    26    2
     8    26    27    1
     9    27    28    1
    10    28    29    2
    11    29    32    1
    12    32    33    1
    13    32    34    1
    14    32    35    1
    15    29    30    1
    16    30    31    2
    17     2     3   am
    18     3     5    1
    19     5     6    1
    20     6     7    1
    21     9     7    1
    22     9    10    1
    23    10    11    1
    24    11    12    1
    25    12    15    1
    26    15    16   ar
    27    16    17   ar
    28    17    18   ar
    29    18    19   ar
    30    12    13    1
    31    13    14    1
    32     7     8    1
    33    31    23    1
    34     8     5    1
    35    31    26    1
    36    14     9    1
    37    19    15   ar
    38    21    22    1
    39     3     4    1
@<TRIPOS>MOLECULE
*****
 35 39 0 0 0
SMALL
GASTEIGER

@<TRIPOS>ATOM
      1 O         143.6444  138.6058  159.4333 O.2     1  UNL1       -0.2706
      2 C         142.3684  138.3479  158.6881 C.2     1  UNL1        0.2701
      3 N         141.0560  138.3822  159.4135 N.am    1  UNL1       -0.2999
      4 H         140.2186  138.2129  158.9244 H       1  UNL1        0.1496
      5 C         141.0196  138.6744  160.8844 C.3     1  UNL1        0.1035
      6 C         140.8123  137.8552  162.1237 C.3     1  UNL1        0.0933
      7 N         140.9681  139.0877  162.9644 N.3     1  UNL1       -0.2711
      8 C         141.1754  139.9069  161.7251 C.3     1  UNL1        0.0933
      9 C         140.9317  139.3798  164.4352 C.3     1  UNL1        0.0576
     10 C         139.6263  139.6892  165.1064 C.3     1  UNL1        0.0163
     11 C         139.5899  139.9813  166.5772 C.3     1  UNL1        0.0063
     12 C         140.8588  139.9642  167.3769 C.3     1  UNL1        0.0301
     13 C         142.1642  139.6549  166.7057 C.3     1  UNL1        0.0063
     14 C         142.2006  139.3627  165.2350 C.3     1  UNL1        0.0163
     15 C         140.8225  140.2563  168.8477 C.ar    1  UNL1        0.0275
     16 C         139.5886  140.4580  169.6765 C.ar    1  UNL1        0.1016
     17 N         140.0174  140.7245  171.0890 N.ar    1  UNL1       -0.2351
     18 C         141.5162  140.6874  171.1332 C.ar    1  UNL1        0.1342
     19 S         142.0139  140.3981  169.7481 S.2     1  UNL1       -0.0688
     20 C         142.4048  138.0558  157.2172 C.3     1  UNL1        0.2850
     21 N         143.7197  137.9870  156.4986 N.pl3   1  UNL1       -0.2091
     22 H         144.4090  137.3488  156.7933 H       1  UNL1        0.2928
     23 C         143.9844  138.8906  155.3309 C.2     1  UNL1        0.3493
     24 N         143.4477  138.7156  153.9412 N.2     1  UNL1        0.0798
     25 N         143.9639  139.8447  153.0994 N.2     1  UNL1       -0.0381
     26 C         144.8196  140.7175  153.9688 C.2     1  UNL1        0.1169
     27 C         145.5889  141.9731  153.6829 C.3     1  UNL1        0.0759
     28 C         146.3709  142.6389  154.7761 C.2     1  UNL1       -0.0158
     29 C         146.3837  142.0491  156.1552 C.2     1  UNL1        0.0678
     30 C         145.6143  140.7936  156.4412 C.2     1  UNL1        0.0123
     31 C         144.8323  140.1278  155.3480 C.2     1  UNL1        0.1019
     32 C         147.1657  142.7150  157.2485 C.3     1  UNL1        0.4183
     33 F         147.9477  143.3809  158.3416 F       1  UNL1       -0.1659
     34 F         148.4307  142.5087  156.4692 F       1  UNL1       -0.1659
     35 F         145.9007  142.9213  158.0277 F       1  UNL1       -0.1659
@<TRIPOS>BOND
     1     1     2    2
     2     2    20    1
     3    20    21    1
     4    21    23    1
     5    23    24    2
     6    24    25    1
     7    25    26    2
     8    26    27    1
     9    27    28    1
    10    28    29    2
    11    29    32    1
    12    32    33    1
    13    32    34    1
    14    32    35    1
    15    29    30    1
    16    30    31    2
    17     2     3   am
    18     3     5    1
    19     5     6    1
    20     6     7    1
    21     9     7    1
    22     9    10    1
    23    10    11    1
    24    11    12    1
    25    12    15    1
    26    15    16   ar
    27    16    17   ar
    28    17    18   ar
    29    18    19   ar
    30    12    13    1
    31    13    14    1
    32     7     8    1
    33    31    23    1
    34     8     5    1
    35    31    26    1
    36    14     9    1
    37    19    15   ar
    38    21    22    1
    39     3     4    1
@<TRIPOS>MOLECULE
*****
 35 39 0 0 0
SMALL
GASTEIGER

@<TRIPOS>ATOM
      1 O         141.2392  140.7509  162.4718 O.2     1  UNL1       -0.2706
      2 C         140.2686  139.7241  161.9681 C.2     1  UNL1        0.2701
      3 N         140.4233  139.1596  160.5871 N.am    1  UNL1       -0.2999
      4 H         139.7863  138.4856  160.2566 H       1  UNL1        0.1496
      5 C         141.5487  139.6218  159.7097 C.3     1  UNL1        0.1035
      6 C         141.6777  140.5918  158.5728 C.3     1  UNL1        0.0933
      7 N         143.1403  140.2755  158.4689 N.3     1  UNL1       -0.2711
      8 C         143.0113  139.3055  159.6057 C.3     1  UNL1        0.0933
      9 C         144.2656  140.7378  157.5914 C.3     1  UNL1        0.0576
     10 C         144.6047  139.9776  156.3436 C.3     1  UNL1        0.0163
     11 C         145.7301  140.4399  155.4662 C.3     1  UNL1        0.0063
     12 C         146.5164  141.6624  155.8366 C.3     1  UNL1        0.0301
     13 C         146.1772  142.4226  157.0845 C.3     1  UNL1        0.0063
     14 C         145.0519  141.9603  157.9619 C.3     1  UNL1        0.0163
     15 C         147.6417  142.1247  154.9593 C.ar    1  UNL1        0.0275
     16 C         149.0854  141.7434  155.1025 C.ar    1  UNL1        0.1016
     17 N         149.8569  142.4327  154.0164 N.ar    1  UNL1       -0.2351
     18 C         148.8900  143.2400  153.2018 C.ar    1  UNL1        0.1342
     19 S         147.5210  143.0497  153.7845 S.2     1  UNL1       -0.0688
     20 C         139.1432  139.2619  162.8455 C.3     1  UNL1        0.2850
     21 N         138.5550  140.1931  163.8639 N.pl3   1  UNL1       -0.2091
     22 H         138.0733  141.0007  163.5723 H       1  UNL1        0.2928
     23 C         138.7007  139.8937  165.3265 C.2     1  UNL1        0.3493
     24 N         137.7701  139.0555  166.1519 N.2     1  UNL1        0.0798
     25 N         138.2968  139.0238  167.5560 N.2     1  UNL1       -0.0381
     26 C         139.5530  139.8425  167.5984 C.2     1  UNL1        0.1169
     27 C         140.5018  140.1679  168.7137 C.3     1  UNL1        0.0759
     28 C         141.7002  141.0309  168.4510 C.2     1  UNL1       -0.0158
     29 C         141.9498  141.5686  167.0731 C.2     1  UNL1        0.0678
     30 C         141.0010  141.2432  165.9578 C.2     1  UNL1        0.0123
     31 C         139.8026  140.3802  166.2205 C.2     1  UNL1        0.1019
     32 C         143.1482  142.4316  166.8105 C.3     1  UNL1        0.4183
     33 F         144.3466  143.2947  166.5479 F       1  UNL1       -0.1659
     34 F         142.8104  142.4563  165.3493 F       1  UNL1       -0.1659
     35 F         143.4861  142.4070  168.2717 F       1  UNL1       -0.1659
@<TRIPOS>BOND
     1     1     2    2
     2     2    20    1
     3    20    21    1
     4    21    23    1
     5    23    24    2
     6    24    25    1
     7    25    26    2
     8    26    27    1
     9    27    28    1
    10    28    29    2
    11    29    32    1
    12    32    33    1
    13    32    34    1
    14    32    35    1
    15    29    30    1
    16    30    31    2
    17     2     3   am
    18     3     5    1
    19     5     6    1
    20     6     7    1
    21     9     7    1
    22     9    10    1
    23    10    11    1
    24    11    12    1
    25    12    15    1
    26    15    16   ar
    27    16    17   ar
    28    17    18   ar
    29    18    19   ar
    30    12    13    1
    31    13    14    1
    32     7     8    1
    33    31    23    1
    34     8     5    1
    35    31    26    1
    36    14     9    1
    37    19    15   ar
    38    21    22    1
    39     3     4    1
@<TRIPOS>MOLECULE
*****
 35 39 0 0 0
SMALL
GASTEIGER

@<TRIPOS>ATOM
      1 O         143.6596  138.8348  159.3648 O.2     1  UNL1       -0.2706
      2 C         143.9706  140.1641  158.7432 C.2     1  UNL1        0.2701
      3 N         143.9554  141.4068  159.5831 N.am    1  UNL1       -0.2999
      4 H         144.1595  142.2792  159.1751 H       1  UNL1        0.1496
      5 C         143.6294  141.3201  161.0447 C.3     1  UNL1        0.1035
      6 C         144.3239  140.7716  162.2557 C.3     1  UNL1        0.0933
      7 N         143.1681  141.1977  163.1116 N.3     1  UNL1       -0.2711
      8 C         142.4735  141.7463  161.9006 C.3     1  UNL1        0.0933
      9 C         142.8421  141.1110  164.5732 C.3     1  UNL1        0.0576
     10 C         143.2188  142.2340  165.4936 C.3     1  UNL1        0.0163
     11 C         142.8928  142.1473  166.9551 C.3     1  UNL1        0.0063
     12 C         142.1899  140.9378  167.4964 C.3     1  UNL1        0.0301
     13 C         141.8132  139.8148  166.5759 C.3     1  UNL1        0.0063
     14 C         142.1392  139.9014  165.1144 C.3     1  UNL1        0.0163
     15 C         141.8638  140.8510  168.9579 C.ar    1  UNL1        0.0275
     16 C         142.8184  141.0898  170.0900 C.ar    1  UNL1        0.1016
     17 N         142.0703  140.8966  171.3757 N.ar    1  UNL1       -0.2351
     18 C         140.6534  140.5384  171.0382 C.ar    1  UNL1        0.1342
     19 S         140.5257  140.5102  169.5439 S.2     1  UNL1       -0.0688
     20 C         144.2966  140.2507  157.2816 C.3     1  UNL1        0.2850
     21 N         145.6166  140.8095  156.8395 N.pl3   1  UNL1       -0.2091
     22 H         146.4512  140.4808  157.2453 H       1  UNL1        0.2928
     23 C         145.6651  141.8693  155.7790 C.2     1  UNL1        0.3493
     24 N         144.5066  142.6956  155.3047 N.2     1  UNL1        0.0798
     25 N         145.0061  143.6257  154.2392 N.2     1  UNL1       -0.0381
     26 C         146.4733  143.3742  154.0549 C.2     1  UNL1        0.1169
     27 C         147.4911  143.9934  153.1435 C.3     1  UNL1        0.0759
     28 C         148.9161  143.5270  153.1837 C.2     1  UNL1       -0.0158
     29 C         149.3234  142.4415  154.1354 C.2     1  UNL1        0.0678
     30 C         148.3057  141.8223  155.0468 C.2     1  UNL1        0.0123
     31 C         146.8806  142.2886  155.0065 C.2     1  UNL1        0.1019
     32 C         150.7486  141.9751  154.1756 C.3     1  UNL1        0.4183
     33 F         152.1737  141.5088  154.2158 F       1  UNL1       -0.1659
     34 F         150.4189  141.0663  155.3225 F       1  UNL1       -0.1659
     35 F         151.0783  142.8839  153.0287 F       1  UNL1       -0.1659
@<TRIPOS>BOND
     1     1     2    2
     2     2    20    1
     3    20    21    1
     4    21    23    1
     5    23    24    2
     6    24    25    1
     7    25    26    2
     8    26    27    1
     9    27    28    1
    10    28    29    2
    11    29    32    1
    12    32    33    1
    13    32    34    1
    14    32    35    1
    15    29    30    1
    16    30    31    2
    17     2     3   am
    18     3     5    1
    19     5     6    1
    20     6     7    1
    21     9     7    1
    22     9    10    1
    23    10    11    1
    24    11    12    1
    25    12    15    1
    26    15    16   ar
    27    16    17   ar
    28    17    18   ar
    29    18    19   ar
    30    12    13    1
    31    13    14    1
    32     7     8    1
    33    31    23    1
    34     8     5    1
    35    31    26    1
    36    14     9    1
    37    19    15   ar
    38    21    22    1
    39     3     4    1
