@<TRIPOS>MOLECULE
*****
 41 46 0 0 0
SMALL
GASTEIGER

@<TRIPOS>ATOM
      1 N         139.9253  140.2548  167.1373 N.3     1  UNL1       -0.2722
      2 C         138.6925  139.6882  166.4977 C.3     1  UNL1        0.0738
      3 C         138.4278  139.9241  165.0403 C.3     1  UNL1        0.0374
      4 C         139.3959  140.7264  164.2224 C.3     1  UNL1        0.0832
      5 C         140.6287  141.2930  164.8620 C.3     1  UNL1        0.1103
      6 C         140.8934  141.0572  166.3194 C.3     1  UNL1        0.0829
      7 N         139.1311  140.9622  162.7648 N.am    1  UNL1       -0.3006
      8 C         139.2061  139.8207  161.7947 C.2     1  UNL1        0.2669
      9 O         139.5458  138.4434  162.2819 O.2     1  UNL1       -0.2684
     10 H         138.9081  141.8662  162.4450 H       1  UNL1        0.1497
     11 C         138.9413  140.0565  160.3371 C.ar    1  UNL1        0.1761
     12 C         138.6048  141.3741  159.7041 C.ar    1  UNL1        0.0673
     13 C         138.4221  141.1481  158.2325 C.ar    1  UNL1        0.1792
     14 O         138.6457  139.6908  157.9561 O.2     1  UNL1       -0.3532
     15 N         138.9666  139.0162  159.2568 N.ar    1  UNL1       -0.0723
     16 C         138.0764  142.1954  157.2158 C.ar    1  UNL1        0.0648
     17 C         138.9990  143.3568  156.9920 C.ar    1  UNL1        0.0077
     18 C         138.6533  144.4042  155.9753 C.ar    1  UNL1        0.0299
     19 C         137.3851  144.2901  155.1825 C.ar    1  UNL1        0.1424
     20 F         137.0394  145.3374  154.1659 F       1  UNL1       -0.2041
     21 C         136.4625  143.1287  155.4064 C.ar    1  UNL1        0.0593
     22 C         136.8082  142.0814  156.4230 C.ar    1  UNL1        0.1453
     23 F         135.8856  140.9200  156.6468 F       1  UNL1       -0.2040
     24 C         141.5968  142.0954  164.0441 C.2     1  UNL1        0.2252
     25 O         142.1255  141.1618  162.9958 O.2     1  UNL1       -0.2750
     26 N         141.8449  143.5368  164.3764 N.am    1  UNL1       -0.3010
     27 H         141.3724  143.9563  165.1314 H       1  UNL1        0.1497
     28 C         142.8131  144.3392  163.5585 C.3     1  UNL1        0.1089
     29 C         144.0877  145.0108  163.1412 C.3     1  UNL1        0.0274
     30 C         144.0318  144.2415  164.4275 C.3     1  UNL1        0.0274
     31 C         141.9306  144.7157  162.4055 C.ar    1  UNL1        0.1549
     32 N         140.6739  145.4982  162.6472 N.ar    1  UNL1       -0.2276
     33 C         139.7914  145.8746  161.4942 C.ar    1  UNL1        0.1019
     34 C         140.1656  145.4686  160.0995 C.ar    1  UNL1        0.0413
     35 C         141.4223  144.6861  159.8578 C.ar    1  UNL1        0.1019
     36 N         142.3048  144.3097  161.0108 N.ar    1  UNL1       -0.2276
     37 C         140.1901  140.0190  168.5949 C.3     1  UNL1        0.0720
     38 C         138.4684  140.2920  170.0924 C.3     1  UNL1        0.0014
     39 C         139.6997  141.0032  169.6150 C.3     1  UNL1        0.0147
     40 C         139.6370  142.2345  170.4694 C.3     1  UNL1        0.0014
     41 C         140.7608  142.0563  169.4920 C.3     1  UNL1        0.0014
@<TRIPOS>BOND
     1    38    39    1
     2    39    37    1
     3    37     1    1
     4     1     2    1
     5     2     3    1
     6     3     4    1
     7     4     7    1
     8     7     8   am
     9     8     9    2
    10     8    11    1
    11    11    12   ar
    12    12    13   ar
    13    13    16    1
    14    16    17   ar
    15    17    18   ar
    16    18    19   ar
    17    19    20    1
    18    19    21   ar
    19    21    22   ar
    20    22    23    1
    21    13    14   ar
    22    14    15   ar
    23     4     5    1
    24     5    24    1
    25    24    25    2
    26    24    26   am
    27    26    28    1
    28    28    31    1
    29    31    32   ar
    30    32    33   ar
    31    33    34   ar
    32    34    35   ar
    33    35    36   ar
    34    28    29    1
    35    29    30    1
    36     5     6    1
    37    39    40    1
    38    40    41    1
    39    41    39    1
    40     6     1    1
    41    15    11   ar
    42    30    28    1
    43    22    16   ar
    44    36    31   ar
    45     7    10    1
    46    26    27    1
@<TRIPOS>MOLECULE
*****
 41 46 0 0 0
SMALL
GASTEIGER

@<TRIPOS>ATOM
      1 N         140.3580  145.2424  156.3391 N.3     1  UNL1       -0.2722
      2 C         141.5489  146.0010  156.8452 C.3     1  UNL1        0.0738
      3 C         142.2246  145.5761  158.1152 C.3     1  UNL1        0.0374
      4 C         141.7093  144.3924  158.8791 C.3     1  UNL1        0.0832
      5 C         140.5184  143.6338  158.3730 C.3     1  UNL1        0.1103
      6 C         139.8428  144.0588  157.1030 C.3     1  UNL1        0.0829
      7 N         142.3850  143.9675  160.1491 N.am    1  UNL1       -0.3006
      8 C         141.8297  144.3979  161.4744 C.2     1  UNL1        0.2669
      9 O         140.5988  145.2532  161.5297 O.2     1  UNL1       -0.2684
     10 H         143.1930  143.4061  160.1128 H       1  UNL1        0.1497
     11 C         142.5055  143.9729  162.7444 C.ar    1  UNL1        0.1761
     12 C         142.0203  142.9138  163.6894 C.ar    1  UNL1        0.0673
     13 C         142.9999  142.8188  164.8215 C.ar    1  UNL1        0.1792
     14 O         144.0904  143.8191  164.5760 O.2     1  UNL1       -0.3532
     15 N         143.7848  144.5323  163.2923 N.ar    1  UNL1       -0.0723
     16 C         142.9056  141.8870  165.9932 C.ar    1  UNL1        0.0648
     17 C         142.9776  142.4289  167.3900 C.ar    1  UNL1        0.0077
     18 C         142.8832  141.4972  168.5617 C.ar    1  UNL1        0.0299
     19 C         142.7168  140.0235  168.3366 C.ar    1  UNL1        0.1424
     20 F         142.6225  139.0918  169.5083 F       1  UNL1       -0.2041
     21 C         142.6448  139.4816  166.9397 C.ar    1  UNL1        0.0593
     22 C         142.7392  140.4134  165.7680 C.ar    1  UNL1        0.1453
     23 F         142.6671  139.8715  164.3711 F       1  UNL1       -0.2040
     24 C         140.0031  142.4502  159.1369 C.2     1  UNL1        0.2252
     25 O         141.1752  141.5313  159.3155 O.2     1  UNL1       -0.2750
     26 N         138.5617  142.3923  159.5476 N.am    1  UNL1       -0.3010
     27 H         137.9537  143.1311  159.3158 H       1  UNL1        0.1497
     28 C         138.0464  141.2086  160.3115 C.3     1  UNL1        0.1089
     29 C         137.5423  139.8246  160.5946 C.3     1  UNL1        0.0274
     30 C         137.8996  140.2204  159.1927 C.3     1  UNL1        0.0274
     31 C         138.0142  141.7858  161.6956 C.ar    1  UNL1        0.1549
     32 N         137.7499  143.2492  161.8920 N.ar    1  UNL1       -0.2276
     33 C         137.7177  143.8264  163.2761 C.ar    1  UNL1        0.1019
     34 C         137.9498  142.9401  164.4639 C.ar    1  UNL1        0.0413
     35 C         138.2141  141.4767  164.2675 C.ar    1  UNL1        0.1019
     36 N         138.2463  140.8996  162.8834 N.ar    1  UNL1       -0.2276
     37 C         139.6823  145.6673  155.0691 C.3     1  UNL1        0.0720
     38 C         140.9001  146.8121  153.4918 C.3     1  UNL1        0.0014
     39 C         139.8683  147.0628  154.5513 C.3     1  UNL1        0.0147
     40 C         139.6959  148.5453  154.4013 C.3     1  UNL1        0.0014
     41 C         138.9010  147.7981  155.4309 C.3     1  UNL1        0.0014
@<TRIPOS>BOND
     1    38    39    1
     2    39    37    1
     3    37     1    1
     4     1     2    1
     5     2     3    1
     6     3     4    1
     7     4     7    1
     8     7     8   am
     9     8     9    2
    10     8    11    1
    11    11    12   ar
    12    12    13   ar
    13    13    16    1
    14    16    17   ar
    15    17    18   ar
    16    18    19   ar
    17    19    20    1
    18    19    21   ar
    19    21    22   ar
    20    22    23    1
    21    13    14   ar
    22    14    15   ar
    23     4     5    1
    24     5    24    1
    25    24    25    2
    26    24    26   am
    27    26    28    1
    28    28    31    1
    29    31    32   ar
    30    32    33   ar
    31    33    34   ar
    32    34    35   ar
    33    35    36   ar
    34    28    29    1
    35    29    30    1
    36     5     6    1
    37    39    40    1
    38    40    41    1
    39    41    39    1
    40     6     1    1
    41    15    11   ar
    42    30    28    1
    43    22    16   ar
    44    36    31   ar
    45     7    10    1
    46    26    27    1
@<TRIPOS>MOLECULE
*****
 41 46 0 0 0
SMALL
GASTEIGER

@<TRIPOS>ATOM
      1 N         144.4397  142.0175  157.1419 N.3     1  UNL1       -0.2722
      2 C         144.2531  140.5477  157.3759 C.3     1  UNL1        0.0738
      3 C         143.5479  140.0683  158.6099 C.3     1  UNL1        0.0374
      4 C         143.0292  141.0588  159.6099 C.3     1  UNL1        0.0832
      5 C         143.2157  142.5286  159.3758 C.3     1  UNL1        0.1103
      6 C         143.9210  143.0079  158.1418 C.3     1  UNL1        0.0829
      7 N         142.3239  140.5794  160.8439 N.am    1  UNL1       -0.3006
      8 C         143.1015  139.9189  161.9434 C.2     1  UNL1        0.2669
      9 O         144.5845  139.7379  161.8090 O.2     1  UNL1       -0.2684
     10 H         141.3506  140.6982  160.9321 H       1  UNL1        0.1497
     11 C         142.3962  139.4395  163.1775 C.ar    1  UNL1        0.1761
     12 C         142.4541  140.0819  164.5318 C.ar    1  UNL1        0.0673
     13 C         141.6029  139.2730  165.4652 C.ar    1  UNL1        0.1792
     14 O         141.0190  138.1307  164.6877 O.2     1  UNL1       -0.3532
     15 N         141.5093  138.2337  163.2739 N.ar    1  UNL1       -0.0723
     16 C         141.3756  139.5565  166.9205 C.ar    1  UNL1        0.0648
     17 C         142.4984  139.3907  167.9013 C.ar    1  UNL1        0.0077
     18 C         142.2710  139.6743  169.3565 C.ar    1  UNL1        0.0299
     19 C         140.9209  140.1236  169.8311 C.ar    1  UNL1        0.1424
     20 F         140.6935  140.4072  171.2863 F       1  UNL1       -0.2041
     21 C         139.7981  140.2894  168.8503 C.ar    1  UNL1        0.0593
     22 C         140.0254  140.0059  167.3950 C.ar    1  UNL1        0.1453
     23 F         138.9026  140.1717  166.4143 F       1  UNL1       -0.2040
     24 C         142.6970  143.5191  160.3758 C.2     1  UNL1        0.2252
     25 O         142.0097  144.5887  159.5799 O.2     1  UNL1       -0.2750
     26 N         142.9281  143.2966  161.8411 N.am    1  UNL1       -0.3010
     27 H         143.4202  142.5005  162.1465 H       1  UNL1        0.1497
     28 C         142.4094  144.2870  162.8410 C.3     1  UNL1        0.1089
     29 C         142.3971  145.4000  163.8466 C.3     1  UNL1        0.0274
     30 C         143.6871  144.9838  163.2044 C.3     1  UNL1        0.0274
     31 C         140.9516  143.9343  162.8250 C.ar    1  UNL1        0.1549
     32 N         139.9170  145.0203  162.8351 N.ar    1  UNL1       -0.2276
     33 C         138.4592  144.6676  162.8190 C.ar    1  UNL1        0.1019
     34 C         138.0359  143.2287  162.7929 C.ar    1  UNL1        0.0413
     35 C         139.0705  142.1427  162.7828 C.ar    1  UNL1        0.1019
     36 N         140.5283  142.4954  162.7988 N.ar    1  UNL1       -0.2276
     37 C         145.1450  142.4969  155.9078 C.3     1  UNL1        0.0720
     38 C         146.3072  141.2501  154.3664 C.3     1  UNL1        0.0014
     39 C         146.5444  142.0408  155.6188 C.3     1  UNL1        0.0147
     40 C         148.0262  141.8593  155.7646 C.3     1  UNL1        0.0014
     41 C         147.2676  142.6731  156.7708 C.3     1  UNL1        0.0014
@<TRIPOS>BOND
     1    38    39    1
     2    39    37    1
     3    37     1    1
     4     1     2    1
     5     2     3    1
     6     3     4    1
     7     4     7    1
     8     7     8   am
     9     8     9    2
    10     8    11    1
    11    11    12   ar
    12    12    13   ar
    13    13    16    1
    14    16    17   ar
    15    17    18   ar
    16    18    19   ar
    17    19    20    1
    18    19    21   ar
    19    21    22   ar
    20    22    23    1
    21    13    14   ar
    22    14    15   ar
    23     4     5    1
    24     5    24    1
    25    24    25    2
    26    24    26   am
    27    26    28    1
    28    28    31    1
    29    31    32   ar
    30    32    33   ar
    31    33    34   ar
    32    34    35   ar
    33    35    36   ar
    34    28    29    1
    35    29    30    1
    36     5     6    1
    37    39    40    1
    38    40    41    1
    39    41    39    1
    40     6     1    1
    41    15    11   ar
    42    30    28    1
    43    22    16   ar
    44    36    31   ar
    45     7    10    1
    46    26    27    1
@<TRIPOS>MOLECULE
*****
 41 46 0 0 0
SMALL
GASTEIGER

@<TRIPOS>ATOM
      1 N         140.9908  144.3810  157.8689 N.3     1  UNL1       -0.2722
      2 C         140.9179  145.4743  158.8933 C.3     1  UNL1        0.0738
      3 C         141.0768  145.1498  160.3491 C.3     1  UNL1        0.0374
      4 C         141.3086  143.7320  160.7805 C.3     1  UNL1        0.0832
      5 C         141.3815  142.6387  159.7561 C.3     1  UNL1        0.1103
      6 C         141.2226  142.9632  158.3004 C.3     1  UNL1        0.0829
      7 N         141.4676  143.4075  162.2364 N.am    1  UNL1       -0.3006
      8 C         142.8122  143.5301  162.8897 C.2     1  UNL1        0.2669
      9 O         143.9980  143.9772  162.0872 O.2     1  UNL1       -0.2684
     10 H         140.6893  143.1141  162.7631 H       1  UNL1        0.1497
     11 C         142.9711  143.2057  164.3456 C.ar    1  UNL1        0.1761
     12 C         142.0016  142.4294  165.1867 C.ar    1  UNL1        0.0673
     13 C         142.5587  142.3444  166.5769 C.ar    1  UNL1        0.1792
     14 O         143.8725  143.0682  166.5948 O.2     1  UNL1       -0.3532
     15 N         144.1274  143.6004  165.2158 N.ar    1  UNL1       -0.0723
     16 C         141.9151  141.6565  167.7442 C.ar    1  UNL1        0.0648
     17 C         142.4892  140.3738  168.2687 C.ar    1  UNL1        0.0077
     18 C         141.8456  139.6859  169.4359 C.ar    1  UNL1        0.0299
     19 C         140.6278  140.2808  170.0787 C.ar    1  UNL1        0.1424
     20 F         139.9842  139.5929  171.2459 F       1  UNL1       -0.2041
     21 C         140.0537  141.5635  169.5542 C.ar    1  UNL1        0.0593
     22 C         140.6973  142.2514  168.3870 C.ar    1  UNL1        0.1453
     23 F         140.1232  143.5341  167.8625 F       1  UNL1       -0.2040
     24 C         141.6133  141.2209  160.1876 C.2     1  UNL1        0.2252
     25 O         140.3357  140.7707  160.8319 O.2     1  UNL1       -0.2750
     26 N         142.9377  140.5656  159.9300 N.am    1  UNL1       -0.3010
     27 H         143.6549  141.0660  159.4777 H       1  UNL1        0.1497
     28 C         143.1695  139.1478  160.3614 C.3     1  UNL1        0.1089
     29 C         143.2410  137.6507  160.3035 C.3     1  UNL1        0.0274
     30 C         142.7885  138.4268  159.1025 C.3     1  UNL1        0.0274
     31 C         143.6311  139.3764  161.7702 C.ar    1  UNL1        0.1549
     32 N         142.9932  138.6236  162.8999 N.ar    1  UNL1       -0.2276
     33 C         143.4548  138.8522  164.3087 C.ar    1  UNL1        0.1019
     34 C         144.5544  139.8335  164.5877 C.ar    1  UNL1        0.0413
     35 C         145.1923  140.5863  163.4580 C.ar    1  UNL1        0.1019
     36 N         144.7307  140.3578  162.0492 N.ar    1  UNL1       -0.2276
     37 C         140.8319  144.7055  156.4130 C.3     1  UNL1        0.0720
     38 C         138.6473  144.0892  156.0540 C.3     1  UNL1        0.0014
     39 C         139.5426  145.2839  155.9099 C.3     1  UNL1        0.0147
     40 C         138.5642  146.2773  155.3568 C.3     1  UNL1        0.0014
     41 C         139.9902  146.6797  155.5911 C.3     1  UNL1        0.0014
@<TRIPOS>BOND
     1    38    39    1
     2    39    37    1
     3    37     1    1
     4     1     2    1
     5     2     3    1
     6     3     4    1
     7     4     7    1
     8     7     8   am
     9     8     9    2
    10     8    11    1
    11    11    12   ar
    12    12    13   ar
    13    13    16    1
    14    16    17   ar
    15    17    18   ar
    16    18    19   ar
    17    19    20    1
    18    19    21   ar
    19    21    22   ar
    20    22    23    1
    21    13    14   ar
    22    14    15   ar
    23     4     5    1
    24     5    24    1
    25    24    25    2
    26    24    26   am
    27    26    28    1
    28    28    31    1
    29    31    32   ar
    30    32    33   ar
    31    33    34   ar
    32    34    35   ar
    33    35    36   ar
    34    28    29    1
    35    29    30    1
    36     5     6    1
    37    39    40    1
    38    40    41    1
    39    41    39    1
    40     6     1    1
    41    15    11   ar
    42    30    28    1
    43    22    16   ar
    44    36    31   ar
    45     7    10    1
    46    26    27    1
@<TRIPOS>MOLECULE
*****
 41 46 0 0 0
SMALL
GASTEIGER

@<TRIPOS>ATOM
      1 N         142.3614  139.9890  167.5200 N.3     1  UNL1       -0.2722
      2 C         143.0310  138.8005  166.8963 C.3     1  UNL1        0.0738
      3 C         142.9073  138.5583  165.4212 C.3     1  UNL1        0.0374
      4 C         142.1139  139.5047  164.5697 C.3     1  UNL1        0.0832
      5 C         141.4443  140.6933  165.1934 C.3     1  UNL1        0.1103
      6 C         141.5681  140.9354  166.6685 C.3     1  UNL1        0.0829
      7 N         141.9902  139.2626  163.0945 N.am    1  UNL1       -0.3006
      8 C         143.1882  139.4197  162.2057 C.2     1  UNL1        0.2669
      9 O         144.5099  139.8190  162.7919 O.2     1  UNL1       -0.2684
     10 H         141.1227  139.0005  162.7098 H       1  UNL1        0.1497
     11 C         143.0645  139.1775  160.7305 C.ar    1  UNL1        0.1761
     12 C         141.8187  138.7594  160.0071 C.ar    1  UNL1        0.0673
     13 C         142.1491  138.6344  158.5492 C.ar    1  UNL1        0.1792
     14 O         143.5990  138.9753  158.3717 O.2     1  UNL1       -0.3532
     15 N         144.1647  139.3109  159.7198 N.ar    1  UNL1       -0.0723
     16 C         141.1967  138.2381  157.4602 C.ar    1  UNL1        0.0648
     17 C         140.0682  139.1510  157.0819 C.ar    1  UNL1        0.0077
     18 C         139.1158  138.7547  155.9929 C.ar    1  UNL1        0.0299
     19 C         139.2921  137.4456  155.2822 C.ar    1  UNL1        0.1424
     20 F         138.3397  137.0493  154.1931 F       1  UNL1       -0.2041
     21 C         140.4206  136.5327  155.6605 C.ar    1  UNL1        0.0593
     22 C         141.3730  136.9290  156.7495 C.ar    1  UNL1        0.1453
     23 F         142.5015  136.0162  157.1278 F       1  UNL1       -0.2040
     24 C         140.6510  141.6397  164.3420 C.2     1  UNL1        0.2252
     25 O         141.6384  142.2959  163.4231 O.2     1  UNL1       -0.2750
     26 N         139.1678  141.7566  164.5326 N.am    1  UNL1       -0.3010
     27 H         138.7150  141.2122  165.2166 H       1  UNL1        0.1497
     28 C         138.3745  142.7030  163.6812 C.3     1  UNL1        0.1089
     29 C         137.6267  143.9344  163.2635 C.3     1  UNL1        0.0274
     30 C         138.2301  143.8523  164.6342 C.3     1  UNL1        0.0274
     31 C         138.2434  141.8825  162.4324 C.ar    1  UNL1        0.1549
     32 N         137.7735  140.4604  162.5153 N.ar    1  UNL1       -0.2276
     33 C         137.6424  139.6399  161.2665 C.ar    1  UNL1        0.1019
     34 C         137.9811  140.2415  159.9348 C.ar    1  UNL1        0.0413
     35 C         138.4509  141.6635  159.8519 C.ar    1  UNL1        0.1019
     36 N         138.5821  142.4841  161.1007 N.ar    1  UNL1       -0.2276
     37 C         142.4851  140.2311  168.9952 C.3     1  UNL1        0.0720
     38 C         140.7577  141.3728  169.9923 C.3     1  UNL1        0.0014
     39 C         142.1785  141.5860  169.5611 C.3     1  UNL1        0.0147
     40 C         142.3653  143.0149  169.9773 C.3     1  UNL1        0.0014
     41 C         143.4928  142.2698  169.3265 C.3     1  UNL1        0.0014
@<TRIPOS>BOND
     1    38    39    1
     2    39    37    1
     3    37     1    1
     4     1     2    1
     5     2     3    1
     6     3     4    1
     7     4     7    1
     8     7     8   am
     9     8     9    2
    10     8    11    1
    11    11    12   ar
    12    12    13   ar
    13    13    16    1
    14    16    17   ar
    15    17    18   ar
    16    18    19   ar
    17    19    20    1
    18    19    21   ar
    19    21    22   ar
    20    22    23    1
    21    13    14   ar
    22    14    15   ar
    23     4     5    1
    24     5    24    1
    25    24    25    2
    26    24    26   am
    27    26    28    1
    28    28    31    1
    29    31    32   ar
    30    32    33   ar
    31    33    34   ar
    32    34    35   ar
    33    35    36   ar
    34    28    29    1
    35    29    30    1
    36     5     6    1
    37    39    40    1
    38    40    41    1
    39    41    39    1
    40     6     1    1
    41    15    11   ar
    42    30    28    1
    43    22    16   ar
    44    36    31   ar
    45     7    10    1
    46    26    27    1
@<TRIPOS>MOLECULE
*****
 41 46 0 0 0
SMALL
GASTEIGER

@<TRIPOS>ATOM
      1 N         142.1659  138.4320  157.8424 N.3     1  UNL1       -0.2722
      2 C         142.8274  137.4684  158.7825 C.3     1  UNL1        0.0738
      3 C         142.9299  137.7959  160.2427 C.3     1  UNL1        0.0374
      4 C         142.3711  139.0871  160.7628 C.3     1  UNL1        0.0832
      5 C         141.7096  140.0508  159.8227 C.3     1  UNL1        0.1103
      6 C         141.6071  139.7232  158.3625 C.3     1  UNL1        0.0829
      7 N         142.4737  139.4146  162.2230 N.am    1  UNL1       -0.3006
      8 C         141.8851  138.4857  163.2432 C.2     1  UNL1        0.2669
      9 O         141.1939  137.2293  162.8031 O.2     1  UNL1       -0.2684
     10 H         142.9274  140.2392  162.5119 H       1  UNL1        0.1497
     11 C         141.9877  138.8132  164.7034 C.ar    1  UNL1        0.1761
     12 C         141.1626  139.8268  165.4397 C.ar    1  UNL1        0.0673
     13 C         141.5984  139.8247  166.8751 C.ar    1  UNL1        0.1792
     14 O         142.6927  138.8098  167.0258 O.2     1  UNL1       -0.3532
     15 N         142.9333  138.1848  165.6837 N.ar    1  UNL1       -0.0723
     16 C         141.0382  140.6861  167.9678 C.ar    1  UNL1        0.0648
     17 C         139.8977  140.1881  168.8053 C.ar    1  UNL1        0.0077
     18 C         139.3375  141.0496  169.8980 C.ar    1  UNL1        0.0299
     19 C         139.9178  142.4090  170.1533 C.ar    1  UNL1        0.1424
     20 F         139.3576  143.2704  171.2460 F       1  UNL1       -0.2041
     21 C         141.0583  142.9070  169.3158 C.ar    1  UNL1        0.0593
     22 C         141.6185  142.0455  168.2231 C.ar    1  UNL1        0.1453
     23 F         142.7590  142.5435  167.3856 F       1  UNL1       -0.2040
     24 C         141.1508  141.3420  160.3428 C.2     1  UNL1        0.2252
     25 O         140.1979  140.9681  161.4392 O.2     1  UNL1       -0.2750
     26 N         141.5911  142.6449  159.7442 N.am    1  UNL1       -0.3010
     27 H         142.2469  142.6527  159.0100 H       1  UNL1        0.1497
     28 C         141.0322  143.9361  160.2643 C.3     1  UNL1        0.1089
     29 C         140.2026  145.1834  160.3414 C.3     1  UNL1        0.0274
     30 C         140.0585  144.2582  159.1697 C.3     1  UNL1        0.0274
     31 C         141.8119  144.0626  161.5395 C.ar    1  UNL1        0.1549
     32 N         141.0930  144.1377  162.8538 N.ar    1  UNL1       -0.2276
     33 C         141.8727  144.2641  164.1290 C.ar    1  UNL1        0.1019
     34 C         143.3713  144.3155  164.0898 C.ar    1  UNL1        0.0413
     35 C         144.0902  144.2404  162.7755 C.ar    1  UNL1        0.1019
     36 N         143.3106  144.1139  161.5003 N.ar    1  UNL1       -0.2276
     37 C         142.0633  138.1045  156.3822 C.3     1  UNL1        0.0720
     38 C         139.9350  137.2524  156.2230 C.3     1  UNL1        0.0014
     39 C         141.3545  136.8584  155.9410 C.3     1  UNL1        0.0147
     40 C         141.1387  135.4753  155.4019 C.3     1  UNL1        0.0014
     41 C         142.5280  136.0315  155.5058 C.3     1  UNL1        0.0014
@<TRIPOS>BOND
     1    38    39    1
     2    39    37    1
     3    37     1    1
     4     1     2    1
     5     2     3    1
     6     3     4    1
     7     4     7    1
     8     7     8   am
     9     8     9    2
    10     8    11    1
    11    11    12   ar
    12    12    13   ar
    13    13    16    1
    14    16    17   ar
    15    17    18   ar
    16    18    19   ar
    17    19    20    1
    18    19    21   ar
    19    21    22   ar
    20    22    23    1
    21    13    14   ar
    22    14    15   ar
    23     4     5    1
    24     5    24    1
    25    24    25    2
    26    24    26   am
    27    26    28    1
    28    28    31    1
    29    31    32   ar
    30    32    33   ar
    31    33    34   ar
    32    34    35   ar
    33    35    36   ar
    34    28    29    1
    35    29    30    1
    36     5     6    1
    37    39    40    1
    38    40    41    1
    39    41    39    1
    40     6     1    1
    41    15    11   ar
    42    30    28    1
    43    22    16   ar
    44    36    31   ar
    45     7    10    1
    46    26    27    1
@<TRIPOS>MOLECULE
*****
 41 46 0 0 0
SMALL
GASTEIGER

@<TRIPOS>ATOM
      1 N         142.7656  138.6360  158.3803 N.3     1  UNL1       -0.2722
      2 C         142.8741  137.4668  159.3137 C.3     1  UNL1        0.0738
      3 C         142.6386  137.6558  160.7829 C.3     1  UNL1        0.0374
      4 C         142.2946  139.0139  161.3188 C.3     1  UNL1        0.0832
      5 C         142.1861  140.1831  160.3854 C.3     1  UNL1        0.1103
      6 C         142.4216  139.9941  158.9161 C.3     1  UNL1        0.0829
      7 N         142.0592  139.2029  162.7882 N.am    1  UNL1       -0.3006
      8 C         143.2035  139.0919  163.7515 C.2     1  UNL1        0.2669
      9 O         144.5834  138.7919  163.2455 O.2     1  UNL1       -0.2684
     10 H         141.1535  139.3997  163.1202 H       1  UNL1        0.1497
     11 C         142.9681  139.2808  165.2208 C.ar    1  UNL1        0.1761
     12 C         142.0599  140.2989  165.8444 C.ar    1  UNL1        0.0673
     13 C         142.1300  140.1321  167.3335 C.ar    1  UNL1        0.1792
     14 O         143.0814  139.0110  167.6302 O.2     1  UNL1       -0.3532
     15 N         143.5994  138.4849  166.3245 N.ar    1  UNL1       -0.0723
     16 C         141.3802  140.9439  168.3479 C.ar    1  UNL1        0.0648
     17 C         140.0837  140.4358  168.9053 C.ar    1  UNL1        0.0077
     18 C         139.3339  141.2476  169.9196 C.ar    1  UNL1        0.0299
     19 C         139.8808  142.5676  170.3765 C.ar    1  UNL1        0.1424
     20 F         139.1310  143.3794  171.3908 F       1  UNL1       -0.2041
     21 C         141.1773  143.0757  169.8190 C.ar    1  UNL1        0.0593
     22 C         141.9270  142.2639  168.8047 C.ar    1  UNL1        0.1453
     23 F         143.2236  142.7720  168.2472 F       1  UNL1       -0.2040
     24 C         141.8421  141.5412  160.9213 C.2     1  UNL1        0.2252
     25 O         142.8255  141.8130  162.0208 O.2     1  UNL1       -0.2750
     26 N         140.6987  142.3126  160.3317 N.am    1  UNL1       -0.3010
     27 H         140.1740  141.9274  159.5930 H       1  UNL1        0.1497
     28 C         140.3547  143.6707  160.8676 C.3     1  UNL1        0.1089
     29 C         140.3095  145.1642  160.9987 C.3     1  UNL1        0.0274
     30 C         141.0955  144.5324  159.8885 C.3     1  UNL1        0.0274
     31 C         139.4944  143.2807  162.0328 C.ar    1  UNL1        0.1549
     32 N         138.3716  142.3044  161.8426 N.ar    1  UNL1       -0.2276
     33 C         137.5113  141.9144  163.0078 C.ar    1  UNL1        0.1019
     34 C         137.7738  142.5008  164.3633 C.ar    1  UNL1        0.0413
     35 C         138.8965  143.4771  164.5535 C.ar    1  UNL1        0.1019
     36 N         139.7568  143.8671  163.3883 N.ar    1  UNL1       -0.2276
     37 C         143.0010  138.4470  156.9109 C.3     1  UNL1        0.0720
     38 C         143.7480  136.5832  155.7932 C.3     1  UNL1        0.0014
     39 C         142.4631  137.2318  156.2153 C.3     1  UNL1        0.0147
     40 C         141.4789  136.2419  155.6663 C.3     1  UNL1        0.0014
     41 C         140.9913  137.4585  156.3959 C.3     1  UNL1        0.0014
@<TRIPOS>BOND
     1    38    39    1
     2    39    37    1
     3    37     1    1
     4     1     2    1
     5     2     3    1
     6     3     4    1
     7     4     7    1
     8     7     8   am
     9     8     9    2
    10     8    11    1
    11    11    12   ar
    12    12    13   ar
    13    13    16    1
    14    16    17   ar
    15    17    18   ar
    16    18    19   ar
    17    19    20    1
    18    19    21   ar
    19    21    22   ar
    20    22    23    1
    21    13    14   ar
    22    14    15   ar
    23     4     5    1
    24     5    24    1
    25    24    25    2
    26    24    26   am
    27    26    28    1
    28    28    31    1
    29    31    32   ar
    30    32    33   ar
    31    33    34   ar
    32    34    35   ar
    33    35    36   ar
    34    28    29    1
    35    29    30    1
    36     5     6    1
    37    39    40    1
    38    40    41    1
    39    41    39    1
    40     6     1    1
    41    15    11   ar
    42    30    28    1
    43    22    16   ar
    44    36    31   ar
    45     7    10    1
    46    26    27    1
@<TRIPOS>MOLECULE
*****
 41 46 0 0 0
SMALL
GASTEIGER

@<TRIPOS>ATOM
      1 N         142.1663  135.8085  155.7926 N.3     1  UNL1       -0.2722
      2 C         140.7888  136.2358  155.3805 C.3     1  UNL1        0.0738
      3 C         140.0370  137.2390  156.2041 C.3     1  UNL1        0.0374
      4 C         140.6627  137.8149  157.4397 C.3     1  UNL1        0.0832
      5 C         142.0402  137.3876  157.8518 C.3     1  UNL1        0.1103
      6 C         142.7920  136.3844  157.0282 C.3     1  UNL1        0.0829
      7 N         139.9108  138.8182  158.2633 N.am    1  UNL1       -0.3006
      8 C         140.2226  140.2797  158.1336 C.2     1  UNL1        0.2669
      9 O         141.2862  140.7380  157.1803 O.2     1  UNL1       -0.2684
     10 H         139.2127  138.5175  158.8890 H       1  UNL1        0.1497
     11 C         139.4707  141.2830  158.9572 C.ar    1  UNL1        0.1761
     12 C         139.7560  141.6427  160.3852 C.ar    1  UNL1        0.0673
     13 C         138.7632  142.6847  160.8079 C.ar    1  UNL1        0.1792
     14 O         137.8643  142.9689  159.6411 O.2     1  UNL1       -0.3532
     15 N         138.3016  142.1026  158.4973 N.ar    1  UNL1       -0.0723
     16 C         138.6833  143.3293  162.1600 C.ar    1  UNL1        0.0648
     17 C         139.5405  144.5190  162.4755 C.ar    1  UNL1        0.0077
     18 C         139.4606  145.1636  163.8276 C.ar    1  UNL1        0.0299
     19 C         138.5234  144.6184  164.8641 C.ar    1  UNL1        0.1424
     20 F         138.4435  145.2630  166.2162 F       1  UNL1       -0.2041
     21 C         137.6662  143.4286  164.5486 C.ar    1  UNL1        0.0593
     22 C         137.7461  142.7840  163.1965 C.ar    1  UNL1        0.1453
     23 F         136.8888  141.5942  162.8810 F       1  UNL1       -0.2040
     24 C         142.6659  137.9636  159.0874 C.2     1  UNL1        0.2252
     25 O         143.6063  139.0324  158.6149 O.2     1  UNL1       -0.2750
     26 N         142.2869  137.4316  160.4377 N.am    1  UNL1       -0.3010
     27 H         141.6275  136.7045  160.5130 H       1  UNL1        0.1497
     28 C         142.9126  138.0076  161.6734 C.3     1  UNL1        0.1089
     29 C         143.9659  138.4274  162.6554 C.3     1  UNL1        0.0274
     30 C         144.3608  137.7584  161.3724 C.3     1  UNL1        0.0274
     31 C         141.6818  138.4568  162.4035 C.ar    1  UNL1        0.1549
     32 N         140.4653  137.5797  162.4332 N.ar    1  UNL1       -0.2276
     33 C         139.2344  138.0289  163.1634 C.ar    1  UNL1        0.1019
     34 C         139.2201  139.3553  163.8638 C.ar    1  UNL1        0.0413
     35 C         140.4365  140.2324  163.8341 C.ar    1  UNL1        0.1019
     36 N         141.6674  139.7831  163.1040 N.ar    1  UNL1       -0.2276
     37 C         142.9181  134.8052  154.9690 C.3     1  UNL1        0.0720
     38 C         142.1015  133.4972  153.2651 C.3     1  UNL1        0.0014
     39 C         142.3437  133.4380  154.7441 C.3     1  UNL1        0.0147
     40 C         141.8534  132.0501  155.0330 C.3     1  UNL1        0.0014
     41 C         142.3864  132.9039  156.1452 C.3     1  UNL1        0.0014
@<TRIPOS>BOND
     1    38    39    1
     2    39    37    1
     3    37     1    1
     4     1     2    1
     5     2     3    1
     6     3     4    1
     7     4     7    1
     8     7     8   am
     9     8     9    2
    10     8    11    1
    11    11    12   ar
    12    12    13   ar
    13    13    16    1
    14    16    17   ar
    15    17    18   ar
    16    18    19   ar
    17    19    20    1
    18    19    21   ar
    19    21    22   ar
    20    22    23    1
    21    13    14   ar
    22    14    15   ar
    23     4     5    1
    24     5    24    1
    25    24    25    2
    26    24    26   am
    27    26    28    1
    28    28    31    1
    29    31    32   ar
    30    32    33   ar
    31    33    34   ar
    32    34    35   ar
    33    35    36   ar
    34    28    29    1
    35    29    30    1
    36     5     6    1
    37    39    40    1
    38    40    41    1
    39    41    39    1
    40     6     1    1
    41    15    11   ar
    42    30    28    1
    43    22    16   ar
    44    36    31   ar
    45     7    10    1
    46    26    27    1
@<TRIPOS>MOLECULE
*****
 41 46 0 0 0
SMALL
GASTEIGER

@<TRIPOS>ATOM
      1 N         142.5506  141.4300  167.9297 N.3     1  UNL1       -0.2722
      2 C         143.4701  142.5267  167.4809 C.3     1  UNL1        0.0738
      3 C         143.7507  142.7193  166.0200 C.3     1  UNL1        0.0374
      4 C         143.1116  141.8151  165.0080 C.3     1  UNL1        0.0832
      5 C         142.1921  140.7184  165.4569 C.3     1  UNL1        0.1103
      6 C         141.9116  140.5258  166.9178 C.3     1  UNL1        0.0829
      7 N         143.3922  142.0077  163.5471 N.am    1  UNL1       -0.3006
      8 C         142.6325  143.0395  162.7671 C.2     1  UNL1        0.2669
      9 O         141.5922  143.8786  163.4481 O.2     1  UNL1       -0.2684
     10 H         144.0750  141.4570  163.1001 H       1  UNL1        0.1497
     11 C         142.9131  143.2321  161.3062 C.ar    1  UNL1        0.1761
     12 C         143.8637  142.4208  160.4766 C.ar    1  UNL1        0.0673
     13 C         143.8304  142.9571  159.0760 C.ar    1  UNL1        0.1792
     14 O         142.8592  144.0998  159.0402 O.2     1  UNL1       -0.3532
     15 N         142.2923  144.2697  160.4185 N.ar    1  UNL1       -0.0723
     16 C         144.6282  142.4413  157.9153 C.ar    1  UNL1        0.0648
     17 C         146.0786  142.8003  157.7834 C.ar    1  UNL1        0.0077
     18 C         146.8764  142.2845  156.6226 C.ar    1  UNL1        0.0299
     19 C         146.2238  141.4097  155.5937 C.ar    1  UNL1        0.1424
     20 F         147.0216  140.8939  154.4329 F       1  UNL1       -0.2041
     21 C         144.7734  141.0506  155.7256 C.ar    1  UNL1        0.0593
     22 C         143.9756  141.5664  156.8864 C.ar    1  UNL1        0.1453
     23 F         142.5251  141.2074  157.0182 F       1  UNL1       -0.2040
     24 C         141.5531  139.8142  164.4449 C.2     1  UNL1        0.2252
     25 O         142.6779  139.0777  163.7798 O.2     1  UNL1       -0.2750
     26 N         140.0615  139.8011  164.2868 N.am    1  UNL1       -0.3010
     27 H         139.5019  140.3859  164.8473 H       1  UNL1        0.1497
     28 C         139.4225  138.8969  163.2748 C.3     1  UNL1        0.1089
     29 C         138.6788  137.7283  162.6994 C.3     1  UNL1        0.0274
     30 C         138.8990  137.8215  164.1801 C.3     1  UNL1        0.0274
     31 C         139.7240  139.6582  162.0181 C.ar    1  UNL1        0.1549
     32 N         139.2347  141.0672  161.8591 N.ar    1  UNL1       -0.2276
     33 C         139.5362  141.8286  160.6024 C.ar    1  UNL1        0.1019
     34 C         140.3270  141.1809  159.5046 C.ar    1  UNL1        0.0413
     35 C         140.8163  139.7719  159.6635 C.ar    1  UNL1        0.1019
     36 N         140.5148  139.0105  160.9203 N.ar    1  UNL1       -0.2276
     37 C         142.2700  141.2374  169.3907 C.3     1  UNL1        0.0720
     38 C         140.5559  140.0145  170.3113 C.3     1  UNL1        0.0014
     39 C         140.8786  141.4256  169.9184 C.3     1  UNL1        0.0147
     40 C         139.5993  142.1040  170.3096 C.3     1  UNL1        0.0014
     41 C         140.7181  142.9022  169.7087 C.3     1  UNL1        0.0014
@<TRIPOS>BOND
     1    38    39    1
     2    39    37    1
     3    37     1    1
     4     1     2    1
     5     2     3    1
     6     3     4    1
     7     4     7    1
     8     7     8   am
     9     8     9    2
    10     8    11    1
    11    11    12   ar
    12    12    13   ar
    13    13    16    1
    14    16    17   ar
    15    17    18   ar
    16    18    19   ar
    17    19    20    1
    18    19    21   ar
    19    21    22   ar
    20    22    23    1
    21    13    14   ar
    22    14    15   ar
    23     4     5    1
    24     5    24    1
    25    24    25    2
    26    24    26   am
    27    26    28    1
    28    28    31    1
    29    31    32   ar
    30    32    33   ar
    31    33    34   ar
    32    34    35   ar
    33    35    36   ar
    34    28    29    1
    35    29    30    1
    36     5     6    1
    37    39    40    1
    38    40    41    1
    39    41    39    1
    40     6     1    1
    41    15    11   ar
    42    30    28    1
    43    22    16   ar
    44    36    31   ar
    45     7    10    1
    46    26    27    1
