@<TRIPOS>MOLECULE
*****
 37 41 0 0 0
SMALL
GASTEIGER

@<TRIPOS>ATOM
      1 N         141.7631  145.5250  159.7376 N.pl3   1  UNL1       -0.3380
      2 C         141.1526  145.1439  161.0537 C.2     1  UNL1        0.1482
      3 N         141.7863  144.0741  161.8927 N.2     1  UNL1       -0.2491
      4 C         141.1758  143.6930  163.2087 C.3     1  UNL1        0.1277
      5 C         141.5731  142.6834  164.2446 C.3     1  UNL1        0.1202
      6 N         140.5744  142.7482  165.3619 N.pl3   1  UNL1       -0.2758
      7 C         139.5599  143.7977  165.0165 C.3     1  UNL1        0.0968
      8 C         139.9316  144.3816  163.6858 C.3     1  UNL1        0.0573
      9 C         139.2979  145.4514  162.8468 C.3     1  UNL1        0.0688
     10 S         139.9084  145.8325  161.5307 S.3     1  UNL1       -0.0807
     11 H         142.5798  145.0730  159.4245 H       1  UNL1        0.1442
     12 H         141.3472  146.2271  159.1869 H       1  UNL1        0.1442
     13 C         142.4147  142.9205  162.8643 C.ar    1  UNL1        0.0282
     14 C         142.3526  141.8162  161.8511 C.ar    1  UNL1        0.0145
     15 C         143.5914  141.0437  161.5068 C.ar    1  UNL1        0.0505
     16 C         144.8924  141.3756  162.1757 C.ar    1  UNL1        0.0170
     17 C         144.9545  142.4799  163.1889 C.ar    1  UNL1        0.0306
     18 C         143.7156  143.2524  163.5333 C.ar    1  UNL1        0.1380
     19 F         143.7777  144.3567  164.5466 F       1  UNL1       -0.2044
     20 N         143.5294  139.9395  160.4936 N.am    1  UNL1       -0.2791
     21 C         143.4666  140.2662  159.0310 C.2     1  UNL1        0.2672
     22 O         143.4659  141.6972  158.5815 O.2     1  UNL1       -0.2682
     23 H         143.5299  139.0002  160.7885 H       1  UNL1        0.1552
     24 C         143.4046  139.1619  158.0177 C.ar    1  UNL1        0.1349
     25 C         142.7188  137.8714  158.3559 C.ar    1  UNL1        0.0261
     26 C         142.6567  136.7670  157.3427 C.ar    1  UNL1        0.0329
     27 C         143.2805  136.9532  155.9913 C.ar    1  UNL1        0.1592
     28 F         143.2184  135.8488  154.9781 F       1  UNL1       -0.2025
     29 C         143.9663  138.2437  155.6531 C.ar    1  UNL1        0.1285
     30 N         144.0283  139.3480  156.6663 N.ar    1  UNL1       -0.2369
     31 C         140.5878  141.9105  166.6062 C.ar    1  UNL1        0.2204
     32 N         139.6494  140.7477  166.7376 N.ar    1  UNL1       -0.2097
     33 C         139.6628  139.9101  167.9818 C.ar    1  UNL1        0.1330
     34 C         140.6146  140.2352  169.0946 C.ar    1  UNL1        0.1784
     35 F         140.6280  139.3975  170.3389 F       1  UNL1       -0.2009
     36 C         141.5530  141.3980  168.9632 C.ar    1  UNL1        0.1330
     37 N         141.5396  142.2356  167.7190 N.ar    1  UNL1       -0.2097
@<TRIPOS>BOND
     1     1     2    1
     2     2     3    2
     3     3     4    1
     4     4    13    1
     5    13    14   ar
     6    14    15   ar
     7    15    20    1
     8    20    21   am
     9    21    22    2
    10    21    24    1
    11    24    25   ar
    12    25    26   ar
    13    26    27   ar
    14    27    28    1
    15    27    29   ar
    16    29    30   ar
    17    15    16   ar
    18    16    17   ar
    19    17    18   ar
    20    18    19    1
    21     4     5    1
    22     5     6    1
    23     6    31    1
    24    31    32   ar
    25    32    33   ar
    26    33    34   ar
    27    34    35    1
    28    34    36   ar
    29    36    37   ar
    30     6     7    1
    31     8     7    1
    32     8     9    1
    33     9    10    1
    34    10     2    1
    35     8     4    1
    36    18    13   ar
    37    37    31   ar
    38    30    24   ar
    39     1    11    1
    40     1    12    1
    41    20    23    1
@<TRIPOS>MOLECULE
*****
 37 41 0 0 0
SMALL
GASTEIGER

@<TRIPOS>ATOM
      1 N         139.1114  140.9068  154.7293 N.pl3   1  UNL1       -0.3380
      2 C         139.5320  139.4686  154.6618 C.2     1  UNL1        0.1482
      3 N         140.4524  138.9066  155.7044 N.2     1  UNL1       -0.2491
      4 C         140.8731  137.4684  155.6369 C.3     1  UNL1        0.1277
      5 C         141.7639  136.6409  156.5155 C.3     1  UNL1        0.1202
      6 N         141.8147  135.2532  155.9483 N.pl3   1  UNL1       -0.2758
      7 C         140.9553  135.2231  154.7193 C.3     1  UNL1        0.0968
      8 C         140.3733  136.5921  154.5269 C.3     1  UNL1        0.0573
      9 C         139.4529  137.1540  153.4843 C.3     1  UNL1        0.0688
     10 S         139.0322  138.5923  153.5518 S.3     1  UNL1       -0.0807
     11 H         139.4394  141.4819  155.4579 H       1  UNL1        0.1442
     12 H         138.5073  141.2756  154.0450 H       1  UNL1        0.1442
     13 C         141.4511  138.2192  156.7999 C.ar    1  UNL1        0.0282
     14 C         140.6509  138.3855  158.0576 C.ar    1  UNL1        0.0145
     15 C         141.2289  139.1363  159.2205 C.ar    1  UNL1        0.0505
     16 C         142.6072  139.7207  159.1255 C.ar    1  UNL1        0.0170
     17 C         143.4074  139.5544  157.8678 C.ar    1  UNL1        0.0306
     18 C         142.8293  138.8036  156.7048 C.ar    1  UNL1        0.1380
     19 F         143.6295  138.6372  155.4471 F       1  UNL1       -0.2044
     20 N         140.4288  139.3027  160.4782 N.am    1  UNL1       -0.2791
     21 C         140.6894  138.4115  161.6563 C.2     1  UNL1        0.2672
     22 O         141.7500  137.3540  161.5766 O.2     1  UNL1       -0.2682
     23 H         139.7326  139.9968  160.5305 H       1  UNL1        0.1552
     24 C         139.8892  138.5780  162.9142 C.ar    1  UNL1        0.1349
     25 C         139.8314  137.4657  163.9190 C.ar    1  UNL1        0.0261
     26 C         139.0313  137.6321  165.1768 C.ar    1  UNL1        0.0329
     27 C         138.2889  138.9107  165.4298 C.ar    1  UNL1        0.1592
     28 F         137.4888  139.0770  166.6876 F       1  UNL1       -0.2025
     29 C         138.3466  140.0229  164.4249 C.ar    1  UNL1        0.1285
     30 N         139.1468  139.8565  163.1671 N.ar    1  UNL1       -0.2369
     31 C         142.5890  134.0984  156.5113 C.ar    1  UNL1        0.2204
     32 N         142.1324  132.6929  156.2544 N.ar    1  UNL1       -0.2097
     33 C         142.9067  131.5381  156.8174 C.ar    1  UNL1        0.1330
     34 C         144.1376  131.7889  157.6373 C.ar    1  UNL1        0.1784
     35 F         144.9118  130.6340  158.2002 F       1  UNL1       -0.2009
     36 C         144.5941  133.1944  157.8941 C.ar    1  UNL1        0.1330
     37 N         143.8198  134.3491  157.3311 N.ar    1  UNL1       -0.2097
@<TRIPOS>BOND
     1     1     2    1
     2     2     3    2
     3     3     4    1
     4     4    13    1
     5    13    14   ar
     6    14    15   ar
     7    15    20    1
     8    20    21   am
     9    21    22    2
    10    21    24    1
    11    24    25   ar
    12    25    26   ar
    13    26    27   ar
    14    27    28    1
    15    27    29   ar
    16    29    30   ar
    17    15    16   ar
    18    16    17   ar
    19    17    18   ar
    20    18    19    1
    21     4     5    1
    22     5     6    1
    23     6    31    1
    24    31    32   ar
    25    32    33   ar
    26    33    34   ar
    27    34    35    1
    28    34    36   ar
    29    36    37   ar
    30     6     7    1
    31     8     7    1
    32     8     9    1
    33     9    10    1
    34    10     2    1
    35     8     4    1
    36    18    13   ar
    37    37    31   ar
    38    30    24   ar
    39     1    11    1
    40     1    12    1
    41    20    23    1
@<TRIPOS>MOLECULE
*****
 37 41 0 0 0
SMALL
GASTEIGER

@<TRIPOS>ATOM
      1 N         137.5649  144.0447  152.9133 N.pl3   1  UNL1       -0.3380
      2 C         138.0118  143.7449  154.3134 C.2     1  UNL1        0.1482
      3 N         137.5773  142.4754  154.9838 N.2     1  UNL1       -0.2491
      4 C         138.0242  142.1756  156.3840 C.3     1  UNL1        0.1277
      5 C         137.7586  141.0142  157.2954 C.3     1  UNL1        0.1202
      6 N         138.4759  141.2662  158.5884 N.pl3   1  UNL1       -0.2758
      7 C         139.1848  142.5834  158.4761 C.3     1  UNL1        0.0968
      8 C         138.9057  143.1454  157.1137 C.3     1  UNL1        0.0573
      9 C         139.3402  144.4149  156.4433 C.3     1  UNL1        0.0688
     10 S         138.8933  144.7147  155.0432 S.3     1  UNL1       -0.0807
     11 H         136.9864  143.4082  152.4343 H       1  UNL1        0.1442
     12 H         137.8501  144.8779  152.4732 H       1  UNL1        0.1442
     13 C         137.1483  141.1164  155.7832 C.ar    1  UNL1        0.0282
     14 C         135.6679  141.1422  156.0234 C.ar    1  UNL1        0.0145
     15 C         134.7920  140.0830  155.4226 C.ar    1  UNL1        0.0505
     16 C         135.3966  138.9980  154.5816 C.ar    1  UNL1        0.0170
     17 C         136.8770  138.9722  154.3414 C.ar    1  UNL1        0.0306
     18 C         137.7529  140.0314  154.9422 C.ar    1  UNL1        0.1380
     19 F         139.2333  140.0056  154.7020 F       1  UNL1       -0.2044
     20 N         133.3117  140.1088  155.6627 N.am    1  UNL1       -0.2791
     21 C         132.7302  139.3846  156.8406 C.2     1  UNL1        0.2672
     22 O         133.6291  138.6346  157.7783 O.2     1  UNL1       -0.2682
     23 H         132.7216  140.6010  155.0473 H       1  UNL1        0.1552
     24 C         131.2497  139.4103  157.0808 C.ar    1  UNL1        0.1349
     25 C         130.6549  138.5899  158.1868 C.ar    1  UNL1        0.0261
     26 C         129.1745  138.6157  158.4269 C.ar    1  UNL1        0.0329
     27 C         128.2889  139.4618  157.5611 C.ar    1  UNL1        0.1592
     28 F         126.8085  139.4876  157.8013 F       1  UNL1       -0.2025
     29 C         128.8836  140.2822  156.4552 C.ar    1  UNL1        0.1285
     30 N         130.3641  140.2565  156.2150 N.ar    1  UNL1       -0.2369
     31 C         138.4830  140.3602  159.7839 C.ar    1  UNL1        0.2204
     32 N         137.8196  140.7936  161.0574 N.ar    1  UNL1       -0.2097
     33 C         137.8267  139.8876  162.2528 C.ar    1  UNL1        0.1330
     34 C         138.4974  138.5481  162.1747 C.ar    1  UNL1        0.1784
     35 F         138.5045  137.6421  163.3702 F       1  UNL1       -0.2009
     36 C         139.1609  138.1147  160.9012 C.ar    1  UNL1        0.1330
     37 N         139.1537  139.0207  159.7058 N.ar    1  UNL1       -0.2097
@<TRIPOS>BOND
     1     1     2    1
     2     2     3    2
     3     3     4    1
     4     4    13    1
     5    13    14   ar
     6    14    15   ar
     7    15    20    1
     8    20    21   am
     9    21    22    2
    10    21    24    1
    11    24    25   ar
    12    25    26   ar
    13    26    27   ar
    14    27    28    1
    15    27    29   ar
    16    29    30   ar
    17    15    16   ar
    18    16    17   ar
    19    17    18   ar
    20    18    19    1
    21     4     5    1
    22     5     6    1
    23     6    31    1
    24    31    32   ar
    25    32    33   ar
    26    33    34   ar
    27    34    35    1
    28    34    36   ar
    29    36    37   ar
    30     6     7    1
    31     8     7    1
    32     8     9    1
    33     9    10    1
    34    10     2    1
    35     8     4    1
    36    18    13   ar
    37    37    31   ar
    38    30    24   ar
    39     1    11    1
    40     1    12    1
    41    20    23    1
@<TRIPOS>MOLECULE
*****
 37 41 0 0 0
SMALL
GASTEIGER

@<TRIPOS>ATOM
      1 N         141.8563  145.5085  160.0109 N.pl3   1  UNL1       -0.3380
      2 C         140.9462  144.8229  160.9864 C.2     1  UNL1        0.1482
      3 N         141.2162  143.4051  161.3951 N.2     1  UNL1       -0.2491
      4 C         140.3061  142.7195  162.3706 C.3     1  UNL1        0.1277
      5 C         140.3194  141.3382  162.9555 C.3     1  UNL1        0.1202
      6 N         139.1474  141.2167  163.8838 N.pl3   1  UNL1       -0.2758
      7 C         138.4099  142.5229  163.8727 C.3     1  UNL1        0.0968
      8 C         139.1260  143.4516  162.9374 C.3     1  UNL1        0.0573
      9 C         138.8560  144.8693  162.5287 C.3     1  UNL1        0.0688
     10 S         139.7661  145.5550  161.5532 S.3     1  UNL1       -0.0807
     11 H         142.6309  145.0279  159.6389 H       1  UNL1        0.1442
     12 H         141.6791  146.4390  159.7426 H       1  UNL1        0.1442
     13 C         141.4412  141.8644  161.8904 C.ar    1  UNL1        0.0282
     14 C         141.2022  140.8223  160.8384 C.ar    1  UNL1        0.0145
     15 C         142.3372  139.9672  160.3582 C.ar    1  UNL1        0.0505
     16 C         143.7112  140.1542  160.9302 C.ar    1  UNL1        0.0170
     17 C         143.9502  141.1963  161.9823 C.ar    1  UNL1        0.0306
     18 C         142.8152  142.0515  162.4625 C.ar    1  UNL1        0.1380
     19 F         143.0542  143.0936  163.5146 F       1  UNL1       -0.2044
     20 N         142.0983  138.9251  159.3062 N.am    1  UNL1       -0.2791
     21 C         142.9868  138.8602  158.0994 C.2     1  UNL1        0.2672
     22 O         144.1142  139.8373  157.9447 O.2     1  UNL1       -0.2682
     23 H         141.3583  138.2837  159.4077 H       1  UNL1        0.1552
     24 C         142.7478  137.8180  157.0473 C.ar    1  UNL1        0.1349
     25 C         141.3568  137.3211  156.7861 C.ar    1  UNL1        0.0261
     26 C         141.1178  136.2789  155.7341 C.ar    1  UNL1        0.0329
     27 C         142.2699  135.7337  154.9432 C.ar    1  UNL1        0.1592
     28 F         142.0309  134.6916  153.8911 F       1  UNL1       -0.2025
     29 C         143.6609  136.2307  155.2043 C.ar    1  UNL1        0.1285
     30 N         143.8999  137.2728  156.2564 N.ar    1  UNL1       -0.2369
     31 C         138.7778  140.0023  164.6831 C.ar    1  UNL1        0.2204
     32 N         138.9329  138.6354  164.0853 N.ar    1  UNL1       -0.2097
     33 C         138.5634  137.4211  164.8846 C.ar    1  UNL1        0.1330
     34 C         138.0387  137.5737  166.2815 C.ar    1  UNL1        0.1784
     35 F         137.6691  136.3593  167.0807 F       1  UNL1       -0.2009
     36 C         137.8836  138.9407  166.8792 C.ar    1  UNL1        0.1330
     37 N         138.2532  140.1550  166.0800 N.ar    1  UNL1       -0.2097
@<TRIPOS>BOND
     1     1     2    1
     2     2     3    2
     3     3     4    1
     4     4    13    1
     5    13    14   ar
     6    14    15   ar
     7    15    20    1
     8    20    21   am
     9    21    22    2
    10    21    24    1
    11    24    25   ar
    12    25    26   ar
    13    26    27   ar
    14    27    28    1
    15    27    29   ar
    16    29    30   ar
    17    15    16   ar
    18    16    17   ar
    19    17    18   ar
    20    18    19    1
    21     4     5    1
    22     5     6    1
    23     6    31    1
    24    31    32   ar
    25    32    33   ar
    26    33    34   ar
    27    34    35    1
    28    34    36   ar
    29    36    37   ar
    30     6     7    1
    31     8     7    1
    32     8     9    1
    33     9    10    1
    34    10     2    1
    35     8     4    1
    36    18    13   ar
    37    37    31   ar
    38    30    24   ar
    39     1    11    1
    40     1    12    1
    41    20    23    1
@<TRIPOS>MOLECULE
*****
 37 41 0 0 0
SMALL
GASTEIGER

@<TRIPOS>ATOM
      1 N         137.7153  142.8553  161.1022 N.pl3   1  UNL1       -0.3380
      2 C         138.3174  143.0320  162.4646 C.2     1  UNL1        0.1482
      3 N         138.9679  141.8693  163.1537 N.2     1  UNL1       -0.2491
      4 C         139.5699  142.0461  164.5162 C.3     1  UNL1        0.1277
      5 C         140.2727  141.0907  165.4346 C.3     1  UNL1        0.1202
      6 N         140.6585  141.8397  166.6756 N.pl3   1  UNL1       -0.2758
      7 C         140.1942  143.2580  166.5241 C.3     1  UNL1        0.0968
      8 C         139.5215  143.3855  165.1895 C.3     1  UNL1        0.0573
      9 C         138.8709  144.5482  164.5004 C.3     1  UNL1        0.0688
     10 S         138.2689  144.3715  163.1380 S.3     1  UNL1       -0.0807
     11 H         137.7471  141.9761  160.6602 H       1  UNL1        0.1442
     12 H         137.2884  143.6184  160.6499 H       1  UNL1        0.1442
     13 C         139.6937  140.6544  163.9703 C.ar    1  UNL1        0.0282
     14 C         140.5828  140.3872  162.7921 C.ar    1  UNL1        0.0145
     15 C         140.7066  138.9955  162.2463 C.ar    1  UNL1        0.0505
     16 C         139.9413  137.8710  162.8787 C.ar    1  UNL1        0.0170
     17 C         139.0522  138.1382  164.0569 C.ar    1  UNL1        0.0306
     18 C         138.9284  139.5299  164.6028 C.ar    1  UNL1        0.1380
     19 F         138.0393  139.7971  165.7810 F       1  UNL1       -0.2044
     20 N         141.5956  138.7282  161.0682 N.am    1  UNL1       -0.2791
     21 C         141.1009  138.9997  159.6784 C.2     1  UNL1        0.2672
     22 O         139.7171  139.5384  159.4668 O.2     1  UNL1       -0.2682
     23 H         142.5039  138.3747  161.2071 H       1  UNL1        0.1552
     24 C         141.9900  138.7324  158.5002 C.ar    1  UNL1        0.1349
     25 C         142.7353  139.8611  157.8517 C.ar    1  UNL1        0.0261
     26 C         143.6244  139.5939  156.6735 C.ar    1  UNL1        0.0329
     27 C         143.7682  138.1980  156.1438 C.ar    1  UNL1        0.1592
     28 F         144.6572  137.9308  154.9656 F       1  UNL1       -0.2025
     29 C         143.0228  137.0692  156.7923 C.ar    1  UNL1        0.1285
     30 N         142.1338  137.3364  157.9705 N.ar    1  UNL1       -0.2369
     31 C         141.3817  141.2705  167.8601 C.ar    1  UNL1        0.2204
     32 N         142.6019  141.9590  168.3958 N.ar    1  UNL1       -0.2097
     33 C         143.3250  141.3898  169.5803 C.ar    1  UNL1        0.1330
     34 C         142.8279  140.1320  170.2290 C.ar    1  UNL1        0.1784
     35 F         143.5511  139.5627  171.4135 F       1  UNL1       -0.2009
     36 C         141.6078  139.4434  169.6933 C.ar    1  UNL1        0.1330
     37 N         140.8846  140.0127  168.5088 N.ar    1  UNL1       -0.2097
@<TRIPOS>BOND
     1     1     2    1
     2     2     3    2
     3     3     4    1
     4     4    13    1
     5    13    14   ar
     6    14    15   ar
     7    15    20    1
     8    20    21   am
     9    21    22    2
    10    21    24    1
    11    24    25   ar
    12    25    26   ar
    13    26    27   ar
    14    27    28    1
    15    27    29   ar
    16    29    30   ar
    17    15    16   ar
    18    16    17   ar
    19    17    18   ar
    20    18    19    1
    21     4     5    1
    22     5     6    1
    23     6    31    1
    24    31    32   ar
    25    32    33   ar
    26    33    34   ar
    27    34    35    1
    28    34    36   ar
    29    36    37   ar
    30     6     7    1
    31     8     7    1
    32     8     9    1
    33     9    10    1
    34    10     2    1
    35     8     4    1
    36    18    13   ar
    37    37    31   ar
    38    30    24   ar
    39     1    11    1
    40     1    12    1
    41    20    23    1
@<TRIPOS>MOLECULE
*****
 37 41 0 0 0
SMALL
GASTEIGER

@<TRIPOS>ATOM
      1 N         140.0062  137.9158  161.1862 N.pl3   1  UNL1       -0.3380
      2 C         139.9395  138.3327  162.6256 C.2     1  UNL1        0.1482
      3 N         140.9307  139.3196  163.1673 N.2     1  UNL1       -0.2491
      4 C         140.8640  139.7364  164.6067 C.3     1  UNL1        0.1277
      5 C         141.6987  140.6834  165.4171 C.3     1  UNL1        0.1202
      6 N         141.1566  140.6985  166.8156 N.pl3   1  UNL1       -0.2758
      7 C         139.9869  139.7609  166.8696 C.3     1  UNL1        0.0968
      8 C         139.8062  139.1663  165.5044 C.3     1  UNL1        0.0573
      9 C         138.8150  138.1794  164.9627 C.3     1  UNL1        0.0688
     10 S         138.8816  137.7626  163.5233 S.3     1  UNL1       -0.0807
     11 H         140.7006  138.2900  160.5971 H       1  UNL1        0.1442
     12 H         139.3556  137.2681  160.8307 H       1  UNL1        0.1442
     13 C         141.9720  140.3881  163.8335 C.ar    1  UNL1        0.0282
     14 C         141.6572  141.4517  162.8238 C.ar    1  UNL1        0.0145
     15 C         142.7651  142.1034  162.0507 C.ar    1  UNL1        0.0505
     16 C         144.1879  141.6915  162.2873 C.ar    1  UNL1        0.0170
     17 C         144.5028  140.6279  163.2970 C.ar    1  UNL1        0.0306
     18 C         143.3948  139.9761  164.0702 C.ar    1  UNL1        0.1380
     19 F         143.7097  138.9125  165.0799 F       1  UNL1       -0.2044
     20 N         142.4503  143.1670  161.0410 N.am    1  UNL1       -0.2791
     21 C         141.7790  142.8010  159.7505 C.2     1  UNL1        0.2672
     22 O         141.4224  141.3713  159.4698 O.2     1  UNL1       -0.2682
     23 H         142.6844  144.1053  161.2252 H       1  UNL1        0.1552
     24 C         141.4642  143.8646  158.7407 C.ar    1  UNL1        0.1349
     25 C         140.1528  143.8433  158.0129 C.ar    1  UNL1        0.0261
     26 C         139.8379  144.9069  157.0032 C.ar    1  UNL1        0.0329
     27 C         140.8345  145.9919  156.7212 C.ar    1  UNL1        0.1592
     28 F         140.5197  147.0555  155.7115 F       1  UNL1       -0.2025
     29 C         142.1460  146.0132  157.4490 C.ar    1  UNL1        0.1285
     30 N         142.4608  144.9496  158.4588 N.ar    1  UNL1       -0.2369
     31 C         141.6903  141.5090  167.9595 C.ar    1  UNL1        0.2204
     32 N         140.7996  142.4883  168.6648 N.ar    1  UNL1       -0.2097
     33 C         141.3334  143.2987  169.8086 C.ar    1  UNL1        0.1330
     34 C         142.7579  143.1298  170.2470 C.ar    1  UNL1        0.1784
     35 F         143.2917  143.9403  171.3909 F       1  UNL1       -0.2009
     36 C         143.6487  142.1505  169.5417 C.ar    1  UNL1        0.1330
     37 N         143.1149  141.3401  168.3979 N.ar    1  UNL1       -0.2097
@<TRIPOS>BOND
     1     1     2    1
     2     2     3    2
     3     3     4    1
     4     4    13    1
     5    13    14   ar
     6    14    15   ar
     7    15    20    1
     8    20    21   am
     9    21    22    2
    10    21    24    1
    11    24    25   ar
    12    25    26   ar
    13    26    27   ar
    14    27    28    1
    15    27    29   ar
    16    29    30   ar
    17    15    16   ar
    18    16    17   ar
    19    17    18   ar
    20    18    19    1
    21     4     5    1
    22     5     6    1
    23     6    31    1
    24    31    32   ar
    25    32    33   ar
    26    33    34   ar
    27    34    35    1
    28    34    36   ar
    29    36    37   ar
    30     6     7    1
    31     8     7    1
    32     8     9    1
    33     9    10    1
    34    10     2    1
    35     8     4    1
    36    18    13   ar
    37    37    31   ar
    38    30    24   ar
    39     1    11    1
    40     1    12    1
    41    20    23    1
@<TRIPOS>MOLECULE
*****
 37 41 0 0 0
SMALL
GASTEIGER

@<TRIPOS>ATOM
      1 N         139.4965  144.3042  159.3698 N.pl3   1  UNL1       -0.3380
      2 C         139.9987  144.1797  160.7777 C.2     1  UNL1        0.1482
      3 N         139.8714  142.8751  161.5069 N.2     1  UNL1       -0.2491
      4 C         140.3737  142.7507  162.9148 C.3     1  UNL1        0.1277
      5 C         140.3850  141.6012  163.8786 C.3     1  UNL1        0.1202
      6 N         141.0216  142.0711  165.1529 N.pl3   1  UNL1       -0.2758
      7 C         141.4037  143.5109  164.9768 C.3     1  UNL1        0.0968
      8 C         141.0033  143.9309  163.5936 C.3     1  UNL1        0.0573
      9 C         141.1306  145.2355  162.8644 C.3     1  UNL1        0.0688
     10 S         140.6283  145.3599  161.4565 S.3     1  UNL1       -0.0807
     11 H         139.0833  143.5295  158.9243 H       1  UNL1        0.1442
     12 H         139.5800  145.1604  158.8912 H       1  UNL1        0.1442
     13 C         139.7702  141.4906  162.3688 C.ar    1  UNL1        0.0282
     14 C         140.5282  140.6676  161.3698 C.ar    1  UNL1        0.0145
     15 C         139.9247  139.4076  160.8238 C.ar    1  UNL1        0.0505
     16 C         138.5631  138.9706  161.2768 C.ar    1  UNL1        0.0170
     17 C         137.8051  139.7936  162.2758 C.ar    1  UNL1        0.0306
     18 C         138.4086  141.0537  162.8218 C.ar    1  UNL1        0.1380
     19 F         137.6506  141.8767  163.8208 F       1  UNL1       -0.2044
     20 N         140.6827  138.5846  159.8248 N.am    1  UNL1       -0.2791
     21 C         140.1843  138.4704  158.4147 C.2     1  UNL1        0.2672
     22 O         138.9280  139.1791  158.0035 O.2     1  UNL1       -0.2682
     23 H         141.5073  138.1194  160.0947 H       1  UNL1        0.1552
     24 C         140.9424  137.6473  157.4156 C.ar    1  UNL1        0.1349
     25 C         140.2408  137.1002  156.2079 C.ar    1  UNL1        0.0261
     26 C         140.9988  136.2772  155.2088 C.ar    1  UNL1        0.0329
     27 C         142.4583  136.0011  155.4176 C.ar    1  UNL1        0.1592
     28 F         143.2163  135.1781  154.4185 F       1  UNL1       -0.2025
     29 C         143.1599  136.5482  156.6253 C.ar    1  UNL1        0.1285
     30 N         142.4019  137.3712  157.6243 N.ar    1  UNL1       -0.2369
     31 C         141.2381  141.2460  166.3868 C.ar    1  UNL1        0.2204
     32 N         140.2280  141.2753  167.4954 N.ar    1  UNL1       -0.2097
     33 C         140.4446  140.4502  168.7292 C.ar    1  UNL1        0.1330
     34 C         141.6711  139.5959  168.8545 C.ar    1  UNL1        0.1784
     35 F         141.8876  138.7708  170.0884 F       1  UNL1       -0.2009
     36 C         142.6811  139.5666  167.7459 C.ar    1  UNL1        0.1330
     37 N         142.4646  140.3917  166.5121 N.ar    1  UNL1       -0.2097
@<TRIPOS>BOND
     1     1     2    1
     2     2     3    2
     3     3     4    1
     4     4    13    1
     5    13    14   ar
     6    14    15   ar
     7    15    20    1
     8    20    21   am
     9    21    22    2
    10    21    24    1
    11    24    25   ar
    12    25    26   ar
    13    26    27   ar
    14    27    28    1
    15    27    29   ar
    16    29    30   ar
    17    15    16   ar
    18    16    17   ar
    19    17    18   ar
    20    18    19    1
    21     4     5    1
    22     5     6    1
    23     6    31    1
    24    31    32   ar
    25    32    33   ar
    26    33    34   ar
    27    34    35    1
    28    34    36   ar
    29    36    37   ar
    30     6     7    1
    31     8     7    1
    32     8     9    1
    33     9    10    1
    34    10     2    1
    35     8     4    1
    36    18    13   ar
    37    37    31   ar
    38    30    24   ar
    39     1    11    1
    40     1    12    1
    41    20    23    1
@<TRIPOS>MOLECULE
*****
 37 41 0 0 0
SMALL
GASTEIGER

@<TRIPOS>ATOM
      1 N         141.1550  142.3761  153.6742 N.pl3   1  UNL1       -0.3380
      2 C         139.6716  142.1554  153.6481 C.2     1  UNL1        0.1482
      3 N         138.9879  141.5147  154.8194 N.2     1  UNL1       -0.2491
      4 C         137.5045  141.2939  154.7933 C.3     1  UNL1        0.1277
      5 C         136.5617  140.6911  155.7923 C.3     1  UNL1        0.1202
      6 N         135.1792  140.7385  155.2121 N.pl3   1  UNL1       -0.2758
      7 C         135.2676  141.3706  153.8546 C.3     1  UNL1        0.0968
      8 C         136.7047  141.7138  153.5958 C.3     1  UNL1        0.0573
      9 C         137.3884  142.3545  152.4245 C.3     1  UNL1        0.0688
     10 S         138.8718  142.5753  152.4506 S.3     1  UNL1       -0.0807
     11 H         141.6799  142.1005  154.4602 H       1  UNL1        0.1442
     12 H         141.6037  142.7967  152.9054 H       1  UNL1        0.1442
     13 C         138.1691  140.8243  156.0534 C.ar    1  UNL1        0.0282
     14 C         138.2287  141.7259  157.2508 C.ar    1  UNL1        0.0145
     15 C         138.8933  141.2562  158.5108 C.ar    1  UNL1        0.0505
     16 C         139.4982  139.8850  158.5736 C.ar    1  UNL1        0.0170
     17 C         139.4385  138.9835  157.3762 C.ar    1  UNL1        0.0306
     18 C         138.7739  139.4531  156.1161 C.ar    1  UNL1        0.1380
     19 F         138.7143  138.5515  154.9187 F       1  UNL1       -0.2044
     20 N         138.9530  142.1577  159.7081 N.am    1  UNL1       -0.2791
     21 C         138.1776  141.8138  160.9453 C.2     1  UNL1        0.2672
     22 O         137.3426  140.5685  160.9851 O.2     1  UNL1       -0.2682
     23 H         139.5011  142.9751  159.6820 H       1  UNL1        0.1552
     24 C         138.2373  142.7154  162.1427 C.ar    1  UNL1        0.1349
     25 C         137.7039  142.2447  163.4633 C.ar    1  UNL1        0.0261
     26 C         137.7636  143.1462  164.6607 C.ar    1  UNL1        0.0329
     27 C         138.3567  144.5184  164.5375 C.ar    1  UNL1        0.1592
     28 F         138.4164  145.4199  165.7349 F       1  UNL1       -0.2025
     29 C         138.8902  144.9891  163.2169 C.ar    1  UNL1        0.1285
     30 N         138.8305  144.0876  162.0195 N.ar    1  UNL1       -0.2369
     31 C         133.9280  140.2411  155.8733 C.ar    1  UNL1        0.2204
     32 N         132.6614  141.0389  155.7780 N.ar    1  UNL1       -0.2097
     33 C         131.4102  140.5416  156.4392 C.ar    1  UNL1        0.1330
     34 C         131.4257  139.2464  157.1956 C.ar    1  UNL1        0.1784
     35 F         130.1745  138.7490  157.8568 F       1  UNL1       -0.2009
     36 C         132.6923  138.4486  157.2909 C.ar    1  UNL1        0.1330
     37 N         133.9435  138.9459  156.6297 N.ar    1  UNL1       -0.2097
@<TRIPOS>BOND
     1     1     2    1
     2     2     3    2
     3     3     4    1
     4     4    13    1
     5    13    14   ar
     6    14    15   ar
     7    15    20    1
     8    20    21   am
     9    21    22    2
    10    21    24    1
    11    24    25   ar
    12    25    26   ar
    13    26    27   ar
    14    27    28    1
    15    27    29   ar
    16    29    30   ar
    17    15    16   ar
    18    16    17   ar
    19    17    18   ar
    20    18    19    1
    21     4     5    1
    22     5     6    1
    23     6    31    1
    24    31    32   ar
    25    32    33   ar
    26    33    34   ar
    27    34    35    1
    28    34    36   ar
    29    36    37   ar
    30     6     7    1
    31     8     7    1
    32     8     9    1
    33     9    10    1
    34    10     2    1
    35     8     4    1
    36    18    13   ar
    37    37    31   ar
    38    30    24   ar
    39     1    11    1
    40     1    12    1
    41    20    23    1
@<TRIPOS>MOLECULE
*****
 37 41 0 0 0
SMALL
GASTEIGER

@<TRIPOS>ATOM
      1 N         141.8648  145.3220  160.3446 N.pl3   1  UNL1       -0.3380
      2 C         141.3627  144.6414  161.5834 C.2     1  UNL1        0.1482
      3 N         140.9243  143.2081  161.5264 N.2     1  UNL1       -0.2491
      4 C         140.4222  142.5275  162.7652 C.3     1  UNL1        0.1277
      5 C         139.9255  141.1340  163.0136 C.3     1  UNL1        0.1202
      6 N         139.5548  141.0256  164.4630 N.pl3   1  UNL1       -0.2758
      7 C         139.8224  142.3520  165.1103 C.3     1  UNL1        0.0968
      8 C         140.3585  143.2802  164.0610 C.3     1  UNL1        0.0573
      9 C         140.7969  144.7135  164.1181 C.3     1  UNL1        0.0688
     10 S         141.2990  145.3941  162.8792 S.3     1  UNL1       -0.0807
     11 H         141.9066  144.8280  159.4940 H       1  UNL1        0.1442
     12 H         142.1526  146.2628  160.3820 H       1  UNL1        0.1442
     13 C         140.4288  141.6512  161.5477 C.ar    1  UNL1        0.0282
     14 C         139.2254  141.6005  160.6536 C.ar    1  UNL1        0.0145
     15 C         139.2320  140.7242  159.4362 C.ar    1  UNL1        0.0505
     16 C         140.4420  139.8987  159.1129 C.ar    1  UNL1        0.0170
     17 C         141.6453  139.9494  160.0069 C.ar    1  UNL1        0.0306
     18 C         141.6388  140.8257  161.2244 C.ar    1  UNL1        0.1380
     19 F         142.8421  140.8764  162.1184 F       1  UNL1       -0.2044
     20 N         138.0287  140.6734  158.5422 N.am    1  UNL1       -0.2791
     21 C         138.0027  141.4732  157.2735 C.2     1  UNL1        0.2672
     22 O         139.1799  142.3238  156.8989 O.2     1  UNL1       -0.2682
     23 H         137.2560  140.1151  158.7881 H       1  UNL1        0.1552
     24 C         136.7993  141.4224  156.3794 C.ar    1  UNL1        0.1349
     25 C         136.7585  142.2500  155.1290 C.ar    1  UNL1        0.0261
     26 C         135.5552  142.1992  154.2348 C.ar    1  UNL1        0.0329
     27 C         134.3926  141.3209  154.5912 C.ar    1  UNL1        0.1592
     28 F         133.1893  141.2702  153.6970 F       1  UNL1       -0.2025
     29 C         134.4334  140.4934  155.8416 C.ar    1  UNL1        0.1285
     30 N         135.6367  140.5441  156.7357 N.ar    1  UNL1       -0.2369
     31 C         139.0118  139.8051  165.1454 C.ar    1  UNL1        0.2204
     32 N         138.2425  139.9414  166.4258 N.ar    1  UNL1       -0.2097
     33 C         137.6996  138.7210  167.1081 C.ar    1  UNL1        0.1330
     34 C         137.9258  137.3641  166.5099 C.ar    1  UNL1        0.1784
     35 F         137.3828  136.1436  167.1922 F       1  UNL1       -0.2009
     36 C         138.6950  137.2278  165.2294 C.ar    1  UNL1        0.1330
     37 N         139.2380  138.4483  164.5472 N.ar    1  UNL1       -0.2097
@<TRIPOS>BOND
     1     1     2    1
     2     2     3    2
     3     3     4    1
     4     4    13    1
     5    13    14   ar
     6    14    15   ar
     7    15    20    1
     8    20    21   am
     9    21    22    2
    10    21    24    1
    11    24    25   ar
    12    25    26   ar
    13    26    27   ar
    14    27    28    1
    15    27    29   ar
    16    29    30   ar
    17    15    16   ar
    18    16    17   ar
    19    17    18   ar
    20    18    19    1
    21     4     5    1
    22     5     6    1
    23     6    31    1
    24    31    32   ar
    25    32    33   ar
    26    33    34   ar
    27    34    35    1
    28    34    36   ar
    29    36    37   ar
    30     6     7    1
    31     8     7    1
    32     8     9    1
    33     9    10    1
    34    10     2    1
    35     8     4    1
    36    18    13   ar
    37    37    31   ar
    38    30    24   ar
    39     1    11    1
    40     1    12    1
    41    20    23    1
