@<TRIPOS>MOLECULE
*****
 29 32 0 0 0
SMALL
GASTEIGER

@<TRIPOS>ATOM
      1 C         138.9216  139.7863  164.5518 C.ar    1  UNL1        0.1060
      2 C         138.1270  138.7762  165.3252 C.ar    1  UNL1        0.0258
      3 C         138.1927  138.7579  166.8236 C.ar    1  UNL1        0.0608
      4 C         139.0533  139.7498  167.5487 C.ar    1  UNL1        0.2439
      5 N         139.8479  140.7600  166.7753 N.ar    1  UNL1       -0.1103
      6 N         139.7821  140.7782  165.2768 N.ar    1  UNL1       -0.1450
      7 O         136.7180  141.2766  163.1651 O.3     1  UNL1       -0.5054
      8 C         137.7540  140.5497  162.3600 C.ar    1  UNL1        0.1366
      9 C         137.6882  140.5679  160.8616 C.ar    1  UNL1        0.0558
     10 C         138.7242  139.8409  160.0565 C.ar    1  UNL1        0.0859
     11 C         139.8261  139.0958  160.7498 C.ar    1  UNL1        0.0194
     12 C         139.8918  139.0776  162.2482 C.ar    1  UNL1        0.0061
     13 C         138.8558  139.8045  163.0533 C.ar    1  UNL1        0.0532
     14 H         136.0297  141.7421  162.7320 H       1  UNL1        0.2922
     15 N         138.6584  139.8591  158.5580 N.ar    1  UNL1       -0.2280
     16 C         137.9013  140.8469  157.7206 C.ar    1  UNL1        0.1020
     17 C         138.1132  140.4910  156.2789 C.ar    1  UNL1        0.0431
     18 C         139.0012  139.2832  156.2252 C.ar    1  UNL1        0.1221
     19 N         139.3381  138.8928  157.6338 N.ar    1  UNL1       -0.1635
     20 O         139.1190  139.7316  169.0471 O.3     1  UNL1       -0.4572
     21 C         140.3283  140.2716  169.7514 C.3     1  UNL1        0.2308
     22 C         141.6197  139.5092  169.7160 C.3     1  UNL1        0.0665
     23 C         142.8290  140.0492  170.4203 C.3     1  UNL1        0.0726
     24 N         142.7470  141.3515  171.1599 N.3     1  UNL1       -0.2927
     25 C         141.4556  142.1139  171.1953 C.3     1  UNL1        0.1398
     26 C         140.2463  141.5739  170.4911 C.3     1  UNL1        0.3139
     27 F         138.8388  141.4742  169.9824 F       1  UNL1       -0.1989
     28 F         139.6755  142.8416  171.0541 F       1  UNL1       -0.1989
     29 H         143.4430  141.9705  170.7444 H       1  UNL1        0.1234
@<TRIPOS>BOND
     1     7     8    1
     2     8     9   ar
     3     9    10   ar
     4    10    15    1
     5    15    16   ar
     6    16    17   ar
     7    17    18   ar
     8    18    19   ar
     9    10    11   ar
    10    11    12   ar
    11    12    13   ar
    12    13     1    1
    13     1     2   ar
    14     2     3   ar
    15     3     4   ar
    16     4    20    1
    17    20    21    1
    18    21    22    1
    19    22    23    1
    20    23    24    1
    21    24    25    1
    22    25    26    1
    23    26    27    1
    24    26    28    1
    25     4     5   ar
    26     5     6   ar
    27    13     8   ar
    28     6     1   ar
    29    19    15   ar
    30    26    21    1
    31     7    14    1
    32    24    29    1
@<TRIPOS>MOLECULE
*****
 29 32 0 0 0
SMALL
GASTEIGER

@<TRIPOS>ATOM
      1 C         139.0443  139.5952  164.3805 C.ar    1  UNL1        0.1060
      2 C         139.6931  140.7414  165.0985 C.ar    1  UNL1        0.0258
      3 C         139.7110  140.7734  166.5980 C.ar    1  UNL1        0.0608
      4 C         139.0801  139.6593  167.3796 C.ar    1  UNL1        0.2439
      5 N         138.4314  138.5131  166.6616 N.ar    1  UNL1       -0.1103
      6 N         138.4135  138.4811  165.1620 N.ar    1  UNL1       -0.1450
      7 O         140.1304  137.2117  162.9178 O.3     1  UNL1       -0.5054
      8 C         139.5694  138.3715  162.1496 C.ar    1  UNL1        0.1366
      9 C         139.5515  138.3396  160.6501 C.ar    1  UNL1        0.0558
     10 C         138.9906  139.4994  159.8818 C.ar    1  UNL1        0.0859
     11 C         138.4475  140.6911  160.6131 C.ar    1  UNL1        0.0194
     12 C         138.4655  140.7231  162.1126 C.ar    1  UNL1        0.0061
     13 C         139.0264  139.5633  162.8809 C.ar    1  UNL1        0.0532
     14 H         140.4696  136.4673  162.4610 H       1  UNL1        0.2922
     15 N         138.9727  139.4674  158.3822 N.ar    1  UNL1       -0.2280
     16 C         139.8892  138.6655  157.5064 C.ar    1  UNL1        0.1020
     17 C         139.5180  138.9342  156.0781 C.ar    1  UNL1        0.0431
     18 C         138.3721  139.9022  156.0712 C.ar    1  UNL1        0.1221
     19 N         138.0351  140.2317  157.4952 N.ar    1  UNL1       -0.1635
     20 O         139.0981  139.6913  168.8791 O.3     1  UNL1       -0.4572
     21 C         140.2922  140.2384  169.6034 C.3     1  UNL1        0.2308
     22 C         141.6074  139.5208  169.5304 C.3     1  UNL1        0.0665
     23 C         142.8016  140.0680  170.2547 C.3     1  UNL1        0.0726
     24 N         142.6806  141.3327  171.0520 N.3     1  UNL1       -0.2927
     25 C         141.3654  142.0503  171.1250 C.3     1  UNL1        0.1398
     26 C         140.1713  141.5032  170.4007 C.3     1  UNL1        0.3139
     27 F         138.7655  141.3806  169.8920 F       1  UNL1       -0.1989
     28 F         139.5621  142.7254  171.0213 F       1  UNL1       -0.1989
     29 H         143.3545  141.9919  170.6625 H       1  UNL1        0.1234
@<TRIPOS>BOND
     1     7     8    1
     2     8     9   ar
     3     9    10   ar
     4    10    15    1
     5    15    16   ar
     6    16    17   ar
     7    17    18   ar
     8    18    19   ar
     9    10    11   ar
    10    11    12   ar
    11    12    13   ar
    12    13     1    1
    13     1     2   ar
    14     2     3   ar
    15     3     4   ar
    16     4    20    1
    17    20    21    1
    18    21    22    1
    19    22    23    1
    20    23    24    1
    21    24    25    1
    22    25    26    1
    23    26    27    1
    24    26    28    1
    25     4     5   ar
    26     5     6   ar
    27    13     8   ar
    28     6     1   ar
    29    19    15   ar
    30    26    21    1
    31     7    14    1
    32    24    29    1
@<TRIPOS>MOLECULE
*****
 29 32 0 0 0
SMALL
GASTEIGER

@<TRIPOS>ATOM
      1 C         142.9227  139.5271  164.2341 C.ar    1  UNL1        0.1060
      2 C         142.9886  138.4546  165.2807 C.ar    1  UNL1        0.0258
      3 C         142.9772  138.8237  166.7345 C.ar    1  UNL1        0.0608
      4 C         142.8998  140.2653  167.1418 C.ar    1  UNL1        0.2439
      5 N         142.8339  141.3378  166.0951 N.ar    1  UNL1       -0.1103
      6 N         142.8454  140.9687  164.6412 N.ar    1  UNL1       -0.1450
      7 O         145.1498  140.4772  162.4627 O.3     1  UNL1       -0.5054
      8 C         144.0477  139.6330  161.8945 C.ar    1  UNL1        0.1366
      9 C         144.0591  139.2638  160.4408 C.ar    1  UNL1        0.0558
     10 C         142.9571  138.4196  159.8726 C.ar    1  UNL1        0.0859
     11 C         141.8436  137.9446  160.7583 C.ar    1  UNL1        0.0194
     12 C         141.8322  138.3137  162.2121 C.ar    1  UNL1        0.0061
     13 C         142.9342  139.1579  162.7802 C.ar    1  UNL1        0.0532
     14 H         145.8453  140.7739  161.9094 H       1  UNL1        0.2922
     15 N         142.9685  138.0505  158.4187 N.ar    1  UNL1       -0.2280
     16 C         142.9495  139.0093  157.2654 C.ar    1  UNL1        0.1020
     17 C         142.9703  138.2091  155.9969 C.ar    1  UNL1        0.0431
     18 C         143.0021  136.7556  156.3662 C.ar    1  UNL1        0.1221
     19 N         143.0010  136.6576  157.8630 N.ar    1  UNL1       -0.1635
     20 O         142.8884  140.6344  168.5956 O.3     1  UNL1       -0.4572
     21 C         141.6015  141.0245  169.2602 C.3     1  UNL1        0.2308
     22 C         140.4951  140.0213  169.3994 C.3     1  UNL1        0.0665
     23 C         139.2082  140.4113  170.0640 C.3     1  UNL1        0.0726
     24 N         139.0277  141.8046  170.5895 N.3     1  UNL1       -0.2927
     25 C         140.1341  142.8078  170.4504 C.3     1  UNL1        0.1398
     26 C         141.4210  142.4177  169.7857 C.3     1  UNL1        0.3139
     27 F         142.8131  142.5245  169.2375 F       1  UNL1       -0.1989
     28 F         141.7240  143.8481  170.1208 F       1  UNL1       -0.1989
     29 H         138.8307  141.7200  171.5867 H       1  UNL1        0.1234
@<TRIPOS>BOND
     1     7     8    1
     2     8     9   ar
     3     9    10   ar
     4    10    15    1
     5    15    16   ar
     6    16    17   ar
     7    17    18   ar
     8    18    19   ar
     9    10    11   ar
    10    11    12   ar
    11    12    13   ar
    12    13     1    1
    13     1     2   ar
    14     2     3   ar
    15     3     4   ar
    16     4    20    1
    17    20    21    1
    18    21    22    1
    19    22    23    1
    20    23    24    1
    21    24    25    1
    22    25    26    1
    23    26    27    1
    24    26    28    1
    25     4     5   ar
    26     5     6   ar
    27    13     8   ar
    28     6     1   ar
    29    19    15   ar
    30    26    21    1
    31     7    14    1
    32    24    29    1
@<TRIPOS>MOLECULE
*****
 29 32 0 0 0
SMALL
GASTEIGER

@<TRIPOS>ATOM
      1 C         139.1472  139.8956  164.2945 C.ar    1  UNL1        0.1060
      2 C         138.3473  138.9194  165.1052 C.ar    1  UNL1        0.0258
      3 C         138.4711  138.9068  166.6000 C.ar    1  UNL1        0.0608
      4 C         139.3949  139.8705  167.2842 C.ar    1  UNL1        0.2439
      5 N         140.1948  140.8468  166.4735 N.ar    1  UNL1       -0.1103
      6 N         140.0709  140.8593  164.9787 N.ar    1  UNL1       -0.1450
      7 O         136.7595  141.1674  162.9977 O.3     1  UNL1       -0.5054
      8 C         137.8295  140.5440  162.1513 C.ar    1  UNL1        0.1366
      9 C         137.7057  140.5565  160.6565 C.ar    1  UNL1        0.0558
     10 C         138.7758  139.9331  159.8101 C.ar    1  UNL1        0.0859
     11 C         139.9696  139.2973  160.4584 C.ar    1  UNL1        0.0194
     12 C         140.0934  139.2848  161.9532 C.ar    1  UNL1        0.0061
     13 C         139.0234  139.9081  162.7997 C.ar    1  UNL1        0.0532
     14 H         136.0138  141.5646  162.5927 H       1  UNL1        0.2922
     15 N         138.6519  139.9457  158.3152 N.ar    1  UNL1       -0.2280
     16 C         138.0285  141.0330  157.4912 C.ar    1  UNL1        0.1020
     17 C         138.1210  140.6324  156.0487 C.ar    1  UNL1        0.0431
     18 C         138.8017  139.2974  155.9811 C.ar    1  UNL1        0.1221
     19 N         139.1298  138.8730  157.3819 N.ar    1  UNL1       -0.1635
     20 O         139.5187  139.8580  168.7790 O.3     1  UNL1       -0.4572
     21 C         140.3204  140.9182  169.4741 C.3     1  UNL1        0.2308
     22 C         139.8628  142.3463  169.4420 C.3     1  UNL1        0.0665
     23 C         140.6645  143.4066  170.1372 C.3     1  UNL1        0.0726
     24 N         141.9238  143.0387  170.8644 N.3     1  UNL1       -0.2927
     25 C         142.3813  141.6106  170.8964 C.3     1  UNL1        0.1398
     26 C         141.5796  140.5503  170.2013 C.3     1  UNL1        0.3139
     27 F         141.1654  139.1994  169.6981 F       1  UNL1       -0.1989
     28 F         142.6951  139.7133  170.7538 F       1  UNL1       -0.1989
     29 H         141.7997  143.3300  171.8340 H       1  UNL1        0.1234
@<TRIPOS>BOND
     1     7     8    1
     2     8     9   ar
     3     9    10   ar
     4    10    15    1
     5    15    16   ar
     6    16    17   ar
     7    17    18   ar
     8    18    19   ar
     9    10    11   ar
    10    11    12   ar
    11    12    13   ar
    12    13     1    1
    13     1     2   ar
    14     2     3   ar
    15     3     4   ar
    16     4    20    1
    17    20    21    1
    18    21    22    1
    19    22    23    1
    20    23    24    1
    21    24    25    1
    22    25    26    1
    23    26    27    1
    24    26    28    1
    25     4     5   ar
    26     5     6   ar
    27    13     8   ar
    28     6     1   ar
    29    19    15   ar
    30    26    21    1
    31     7    14    1
    32    24    29    1
@<TRIPOS>MOLECULE
*****
 29 32 0 0 0
SMALL
GASTEIGER

@<TRIPOS>ATOM
      1 C         142.3220  143.3542  163.9084 C.ar    1  UNL1        0.1060
      2 C         143.7256  143.4367  164.4310 C.ar    1  UNL1        0.0258
      3 C         144.0291  143.0082  165.8361 C.ar    1  UNL1        0.0608
      4 C         142.9289  142.4973  166.7186 C.ar    1  UNL1        0.2439
      5 N         141.5254  142.4148  166.1960 N.ar    1  UNL1       -0.1103
      6 N         141.2219  142.8433  164.7908 N.ar    1  UNL1       -0.1450
      7 O         140.3436  145.5524  163.4046 O.3     1  UNL1       -0.5054
      8 C         141.0294  144.8818  162.2513 C.ar    1  UNL1        0.1366
      9 C         140.7260  145.3102  160.8462 C.ar    1  UNL1        0.0558
     10 C         141.4118  144.6395  159.6930 C.ar    1  UNL1        0.0859
     11 C         142.4009  143.5404  159.9449 C.ar    1  UNL1        0.0194
     12 C         142.7043  143.1120  161.3500 C.ar    1  UNL1        0.0061
     13 C         142.0186  143.7827  162.5032 C.ar    1  UNL1        0.0532
     14 H         139.7257  146.2390  163.2472 H       1  UNL1        0.2922
     15 N         141.1083  145.0680  158.2879 N.ar    1  UNL1       -0.2280
     16 C         141.9889  145.9103  157.4133 C.ar    1  UNL1        0.1020
     17 C         141.2958  146.0922  156.0955 C.ar    1  UNL1        0.0431
     18 C         139.9868  145.3623  156.1557 C.ar    1  UNL1        0.1221
     19 N         139.8709  144.7293  157.5106 N.ar    1  UNL1       -0.1635
     20 O         143.2324  142.0689  168.1237 O.3     1  UNL1       -0.4572
     21 C         142.1130  141.8263  169.0922 C.3     1  UNL1        0.2308
     22 C         141.2522  142.9683  169.5449 C.3     1  UNL1        0.0665
     23 C         140.1328  142.7257  170.5134 C.3     1  UNL1        0.0726
     24 N         139.8741  141.3412  171.0292 N.3     1  UNL1       -0.2927
     25 C         140.7348  140.1992  170.5765 C.3     1  UNL1        0.1398
     26 C         141.8543  140.4418  169.6080 C.3     1  UNL1        0.3139
     27 F         143.0251  140.1707  168.7104 F       1  UNL1       -0.1989
     28 F         142.0022  138.9631  169.8121 F       1  UNL1       -0.1989
     29 H         138.9149  141.1062  170.7738 H       1  UNL1        0.1234
@<TRIPOS>BOND
     1     7     8    1
     2     8     9   ar
     3     9    10   ar
     4    10    15    1
     5    15    16   ar
     6    16    17   ar
     7    17    18   ar
     8    18    19   ar
     9    10    11   ar
    10    11    12   ar
    11    12    13   ar
    12    13     1    1
    13     1     2   ar
    14     2     3   ar
    15     3     4   ar
    16     4    20    1
    17    20    21    1
    18    21    22    1
    19    22    23    1
    20    23    24    1
    21    24    25    1
    22    25    26    1
    23    26    27    1
    24    26    28    1
    25     4     5   ar
    26     5     6   ar
    27    13     8   ar
    28     6     1   ar
    29    19    15   ar
    30    26    21    1
    31     7    14    1
    32    24    29    1
@<TRIPOS>MOLECULE
*****
 29 32 0 0 0
SMALL
GASTEIGER

@<TRIPOS>ATOM
      1 C         141.6759  144.1878  161.8248 C.ar    1  UNL1        0.1060
      2 C         140.4710  145.0479  161.5832 C.ar    1  UNL1        0.0258
      3 C         140.2129  145.6105  160.2169 C.ar    1  UNL1        0.0608
      4 C         141.1598  145.3131  159.0922 C.ar    1  UNL1        0.2439
      5 N         142.3647  144.4530  159.3337 N.ar    1  UNL1       -0.1103
      6 N         142.6228  143.8903  160.7001 N.ar    1  UNL1       -0.1450
      7 O         144.4470  144.2472  162.9728 O.3     1  UNL1       -0.5054
      8 C         143.3195  143.6548  163.7651 C.ar    1  UNL1        0.1366
      9 C         143.5775  143.0922  165.1314 C.ar    1  UNL1        0.0558
     10 C         142.4500  142.4998  165.9238 C.ar    1  UNL1        0.0859
     11 C         141.0645  142.4701  165.3498 C.ar    1  UNL1        0.0194
     12 C         140.8065  143.0327  163.9835 C.ar    1  UNL1        0.0061
     13 C         141.9340  143.6251  163.1912 C.ar    1  UNL1        0.0532
     14 H         145.3125  144.2658  163.3313 H       1  UNL1        0.2922
     15 N         142.7081  141.9371  167.2901 N.ar    1  UNL1       -0.2280
     16 C         142.3125  140.5724  167.7708 C.ar    1  UNL1        0.1020
     17 C         142.7669  140.4323  169.1934 C.ar    1  UNL1        0.0431
     18 C         143.4434  141.7105  169.5920 C.ar    1  UNL1        0.1221
     19 N         143.4070  142.6405  168.4157 N.ar    1  UNL1       -0.1635
     20 O         140.9017  145.8757  157.7259 O.3     1  UNL1       -0.4572
     21 C         139.8207  145.2910  156.8659 C.3     1  UNL1        0.2308
     22 C         139.5003  143.8284  156.9549 C.3     1  UNL1        0.0665
     23 C         138.4193  143.2437  156.0949 C.3     1  UNL1        0.0726
     24 N         137.6587  144.1217  155.1459 N.3     1  UNL1       -0.2927
     25 C         137.9792  145.5843  155.0569 C.3     1  UNL1        0.1398
     26 C         139.0602  146.1690  155.9169 C.3     1  UNL1        0.3139
     27 F         139.9890  147.1807  156.5200 F       1  UNL1       -0.1989
     28 F         138.6222  147.3983  155.1773 F       1  UNL1       -0.1989
     29 H         136.6745  144.0510  155.4040 H       1  UNL1        0.1234
@<TRIPOS>BOND
     1     7     8    1
     2     8     9   ar
     3     9    10   ar
     4    10    15    1
     5    15    16   ar
     6    16    17   ar
     7    17    18   ar
     8    18    19   ar
     9    10    11   ar
    10    11    12   ar
    11    12    13   ar
    12    13     1    1
    13     1     2   ar
    14     2     3   ar
    15     3     4   ar
    16     4    20    1
    17    20    21    1
    18    21    22    1
    19    22    23    1
    20    23    24    1
    21    24    25    1
    22    25    26    1
    23    26    27    1
    24    26    28    1
    25     4     5   ar
    26     5     6   ar
    27    13     8   ar
    28     6     1   ar
    29    19    15   ar
    30    26    21    1
    31     7    14    1
    32    24    29    1
@<TRIPOS>MOLECULE
*****
 29 32 0 0 0
SMALL
GASTEIGER

@<TRIPOS>ATOM
      1 C         142.9802  139.9327  163.6700 C.ar    1  UNL1        0.1060
      2 C         142.6531  141.3503  164.0353 C.ar    1  UNL1        0.0258
      3 C         142.6457  141.7711  165.4750 C.ar    1  UNL1        0.0608
      4 C         142.9653  140.7744  166.5495 C.ar    1  UNL1        0.2439
      5 N         143.2923  139.3568  166.1842 N.ar    1  UNL1       -0.1103
      6 N         143.2998  138.9359  164.7444 N.ar    1  UNL1       -0.1450
      7 O         141.7796  137.3024  162.8698 O.3     1  UNL1       -0.5054
      8 C         142.3873  138.1967  161.8301 C.ar    1  UNL1        0.1366
      9 C         142.3948  137.7759  160.3904 C.ar    1  UNL1        0.0558
     10 C         143.0026  138.6702  159.3508 C.ar    1  UNL1        0.0859
     11 C         143.6028  139.9853  159.7509 C.ar    1  UNL1        0.0194
     12 C         143.5954  140.4061  161.1906 C.ar    1  UNL1        0.0061
     13 C         142.9876  139.5118  162.2302 C.ar    1  UNL1        0.0532
     14 H         141.4046  136.4809  162.6198 H       1  UNL1        0.2922
     15 N         143.0100  138.2494  157.9110 N.ar    1  UNL1       -0.2280
     16 C         142.2899  137.0666  157.3344 C.ar    1  UNL1        0.1020
     17 C         142.5737  137.0237  155.8621 C.ar    1  UNL1        0.0431
     18 C         143.4693  138.1799  155.5288 C.ar    1  UNL1        0.1221
     19 N         143.7389  138.9374  156.7951 N.ar    1  UNL1       -0.1635
     20 O         142.9578  141.1953  167.9892 O.3     1  UNL1       -0.4572
     21 C         141.6597  141.2992  168.7335 C.3     1  UNL1        0.2308
     22 C         140.6772  140.1666  168.6896 C.3     1  UNL1        0.0665
     23 C         139.3791  140.2705  169.4339 C.3     1  UNL1        0.0726
     24 N         139.0634  141.5071  170.2221 N.3     1  UNL1       -0.2927
     25 C         140.0458  142.6396  170.2660 C.3     1  UNL1        0.1398
     26 C         141.3440  142.5357  169.5217 C.3     1  UNL1        0.3139
     27 F         142.6955  142.9060  168.9866 F       1  UNL1       -0.1989
     28 F         141.4976  143.9008  170.1240 F       1  UNL1       -0.1989
     29 H         138.9121  141.2110  171.1864 H       1  UNL1        0.1234
@<TRIPOS>BOND
     1     7     8    1
     2     8     9   ar
     3     9    10   ar
     4    10    15    1
     5    15    16   ar
     6    16    17   ar
     7    17    18   ar
     8    18    19   ar
     9    10    11   ar
    10    11    12   ar
    11    12    13   ar
    12    13     1    1
    13     1     2   ar
    14     2     3   ar
    15     3     4   ar
    16     4    20    1
    17    20    21    1
    18    21    22    1
    19    22    23    1
    20    23    24    1
    21    24    25    1
    22    25    26    1
    23    26    27    1
    24    26    28    1
    25     4     5   ar
    26     5     6   ar
    27    13     8   ar
    28     6     1   ar
    29    19    15   ar
    30    26    21    1
    31     7    14    1
    32    24    29    1
@<TRIPOS>MOLECULE
*****
 29 32 0 0 0
SMALL
GASTEIGER

@<TRIPOS>ATOM
      1 C         141.7130  142.0528  163.7431 C.ar    1  UNL1        0.1060
      2 C         140.7391  142.0499  164.8840 C.ar    1  UNL1        0.0258
      3 C         141.1245  141.4368  166.1976 C.ar    1  UNL1        0.0608
      4 C         142.4839  140.8265  166.3703 C.ar    1  UNL1        0.2439
      5 N         143.4578  140.8294  165.2295 N.ar    1  UNL1       -0.1103
      6 N         143.0723  141.4425  163.9159 N.ar    1  UNL1       -0.1450
      7 O         143.6794  143.7548  162.2476 O.3     1  UNL1       -0.5054
      8 C         142.3107  143.5169  161.6818 C.ar    1  UNL1        0.1366
      9 C         141.9252  144.1300  160.3682 C.ar    1  UNL1        0.0558
     10 C         140.5565  143.8921  159.8024 C.ar    1  UNL1        0.0859
     11 C         139.5734  143.0411  160.5501 C.ar    1  UNL1        0.0194
     12 C         139.9589  142.4280  161.8637 C.ar    1  UNL1        0.0061
     13 C         141.3275  142.6659  162.4295 C.ar    1  UNL1        0.0532
     14 H         144.2935  144.2864  161.7805 H       1  UNL1        0.2922
     15 N         140.1711  144.5052  158.4888 N.ar    1  UNL1       -0.2280
     16 C         140.4314  145.9207  158.0663 C.ar    1  UNL1        0.1020
     17 C         139.8788  146.1008  156.6834 C.ar    1  UNL1        0.0431
     18 C         139.2769  144.7965  156.2513 C.ar    1  UNL1        0.1221
     19 N         139.4575  143.8104  157.3671 N.ar    1  UNL1       -0.1635
     20 O         142.8693  140.2134  167.6839 O.3     1  UNL1       -0.4572
     21 C         142.5969  140.9479  168.9631 C.3     1  UNL1        0.2308
     22 C         143.2693  142.2616  169.2315 C.3     1  UNL1        0.0665
     23 C         142.9968  142.9960  170.5107 C.3     1  UNL1        0.0726
     24 N         142.0520  142.4168  171.5215 N.3     1  UNL1       -0.2927
     25 C         141.3796  141.1032  171.2531 C.3     1  UNL1        0.1398
     26 C         141.6520  140.3687  169.9739 C.3     1  UNL1        0.3139
     27 F         141.5886  139.3047  168.9185 F       1  UNL1       -0.1989
     28 F         140.6851  139.4200  170.6181 F       1  UNL1       -0.1989
     29 H         141.3110  143.1041  171.6596 H       1  UNL1        0.1234
@<TRIPOS>BOND
     1     7     8    1
     2     8     9   ar
     3     9    10   ar
     4    10    15    1
     5    15    16   ar
     6    16    17   ar
     7    17    18   ar
     8    18    19   ar
     9    10    11   ar
    10    11    12   ar
    11    12    13   ar
    12    13     1    1
    13     1     2   ar
    14     2     3   ar
    15     3     4   ar
    16     4    20    1
    17    20    21    1
    18    21    22    1
    19    22    23    1
    20    23    24    1
    21    24    25    1
    22    25    26    1
    23    26    27    1
    24    26    28    1
    25     4     5   ar
    26     5     6   ar
    27    13     8   ar
    28     6     1   ar
    29    19    15   ar
    30    26    21    1
    31     7    14    1
    32    24    29    1
@<TRIPOS>MOLECULE
*****
 29 32 0 0 0
SMALL
GASTEIGER

@<TRIPOS>ATOM
      1 C         140.3621  139.1894  164.2585 C.ar    1  UNL1        0.1060
      2 C         139.2585  138.3873  164.8818 C.ar    1  UNL1        0.0258
      3 C         138.9017  138.5961  166.3237 C.ar    1  UNL1        0.0608
      4 C         139.6486  139.6071  167.1423 C.ar    1  UNL1        0.2439
      5 N         140.7522  140.4093  166.5190 N.ar    1  UNL1       -0.1103
      6 N         141.1090  140.2004  165.0770 N.ar    1  UNL1       -0.1450
      7 O         143.2057  139.5044  163.3558 O.3     1  UNL1       -0.5054
      8 C         142.1406  139.1381  162.3652 C.ar    1  UNL1        0.1366
      9 C         142.4972  138.9292  160.9233 C.ar    1  UNL1        0.0558
     10 C         141.4321  138.5629  159.9327 C.ar    1  UNL1        0.0859
     11 C         140.0103  138.4055  160.3840 C.ar    1  UNL1        0.0194
     12 C         139.6537  138.6143  161.8259 C.ar    1  UNL1        0.0061
     13 C         140.7188  138.9806  162.8165 C.ar    1  UNL1        0.0532
     14 H         144.0939  139.6027  163.0739 H       1  UNL1        0.2922
     15 N         141.7888  138.3541  158.4907 N.ar    1  UNL1       -0.2280
     16 C         141.1027  138.9805  157.3131 C.ar    1  UNL1        0.1020
     17 C         141.7842  138.4957  156.0678 C.ar    1  UNL1        0.0431
     18 C         142.8915  137.5697  156.4759 C.ar    1  UNL1        0.1221
     19 N         142.8943  137.4822  157.9733 N.ar    1  UNL1       -0.1635
     20 O         139.2919  139.8159  168.5842 O.3     1  UNL1       -0.4572
     21 C         140.3355  140.2834  169.5550 C.3     1  UNL1        0.2308
     22 C         141.6132  139.5134  169.7110 C.3     1  UNL1        0.0665
     23 C         142.6568  139.9809  170.6818 C.3     1  UNL1        0.0726
     24 N         142.4227  141.2184  171.4964 N.3     1  UNL1       -0.2927
     25 C         141.1449  141.9884  171.3403 C.3     1  UNL1        0.1398
     26 C         140.1013  141.5209  170.3696 C.3     1  UNL1        0.3139
     27 F         138.8221  141.4781  169.5875 F       1  UNL1       -0.1989
     28 F         139.4229  142.7435  170.9126 F       1  UNL1       -0.1989
     29 H         143.1831  141.8625  171.2787 H       1  UNL1        0.1234
@<TRIPOS>BOND
     1     7     8    1
     2     8     9   ar
     3     9    10   ar
     4    10    15    1
     5    15    16   ar
     6    16    17   ar
     7    17    18   ar
     8    18    19   ar
     9    10    11   ar
    10    11    12   ar
    11    12    13   ar
    12    13     1    1
    13     1     2   ar
    14     2     3   ar
    15     3     4   ar
    16     4    20    1
    17    20    21    1
    18    21    22    1
    19    22    23    1
    20    23    24    1
    21    24    25    1
    22    25    26    1
    23    26    27    1
    24    26    28    1
    25     4     5   ar
    26     5     6   ar
    27    13     8   ar
    28     6     1   ar
    29    19    15   ar
    30    26    21    1
    31     7    14    1
    32    24    29    1
