@<TRIPOS>MOLECULE
*****
 44 49 0 0 0
SMALL
GASTEIGER

@<TRIPOS>ATOM
      1 C         139.8925  138.9938  158.3678 C.3     1  UNL1        0.0546
      2 C         139.0177  140.2121  158.3874 C.3     1  UNL1        0.0180
      3 C         139.7662  141.3090  159.0850 C.3     1  UNL1        0.0310
      4 C         139.6883  142.7398  159.5283 C.3     1  UNL1        0.0939
      5 N         140.9774  143.0837  160.2138 N.am    1  UNL1       -0.2790
      6 C         141.3299  144.4126  160.8136 C.2     1  UNL1        0.2260
      7 O         142.6644  144.6090  161.4699 O.2     1  UNL1       -0.2749
      8 C         141.8522  141.8653  160.1942 C.3     1  UNL1        0.1020
      9 C         141.1037  140.7685  159.4966 C.3     1  UNL1        0.0902
     10 C         141.1816  139.3376  159.0533 C.3     1  UNL1        0.0261
     11 C         142.4410  140.2280  159.9080 C.2     1  UNL1        0.2267
     12 O         143.5132  140.0171  158.8804 O.2     1  UNL1       -0.2748
     13 N         142.7062  139.8983  161.3472 N.am    1  UNL1       -0.2750
     14 C         144.0435  139.3578  161.7587 C.3     1  UNL1        0.1000
     15 C         144.3087  139.0282  163.1977 C.3     1  UNL1        0.0670
     16 C         143.2365  139.2390  164.2253 C.ar    1  UNL1        0.0583
     17 N         143.5017  138.9094  165.6645 N.ar    1  UNL1       -0.2484
     18 C         142.4295  139.1202  166.6921 C.ar    1  UNL1        0.1023
     19 C         141.0921  139.6607  166.2805 C.ar    1  UNL1        0.0902
     20 C         140.8269  139.9904  164.8414 C.ar    1  UNL1        0.0040
     21 C         141.8991  139.7795  163.8139 C.ar    1  UNL1        0.0113
     22 C         141.6340  140.1092  162.3748 C.3     1  UNL1        0.1213
     23 C         140.0199  139.8716  167.3081 C.3     1  UNL1        0.4200
     24 F         138.9477  140.0824  168.3357 F       1  UNL1       -0.1658
     25 F         141.0677  140.0153  168.3719 F       1  UNL1       -0.1658
     26 F         138.9721  139.7279  166.2444 F       1  UNL1       -0.1658
     27 N         139.5400  137.6648  157.7680 N.3     1  UNL1       -0.2975
     28 H         139.8131  136.9538  158.4464 H       1  UNL1        0.1232
     29 C         139.2471  137.1033  155.2483 C.3     1  UNL1        0.1591
     30 C         139.8374  136.6946  153.9313 C.3     1  UNL1        0.1729
     31 O         141.3109  136.4388  153.8170 O.3     1  UNL1       -0.3511
     32 C         142.1943  136.5916  155.0197 C.3     1  UNL1        0.1437
     33 C         141.6039  137.0003  156.3367 C.3     1  UNL1        0.0503
     34 C         140.1303  137.2561  156.4510 C.3     1  UNL1        0.0865
     35 C         136.9938  137.8027  154.1604 C.3     1  UNL1        0.1742
     36 O         137.7735  137.3591  155.3626 O.3     1  UNL1       -0.3496
     37 C         140.3480  145.5451  160.7571 C.3     1  UNL1        0.0899
     38 C         139.5495  145.9068  161.9743 C.3     1  UNL1        0.0359
     39 C         139.1645  144.8451  162.9615 C.ar    1  UNL1       -0.0217
     40 C         139.9230  144.7067  164.2482 C.ar    1  UNL1       -0.0043
     41 C         139.5379  143.6450  165.2353 C.ar    1  UNL1       -0.0003
     42 C         138.3943  142.7217  164.9358 C.ar    1  UNL1       -0.0000
     43 C         137.6358  142.8601  163.6491 C.ar    1  UNL1       -0.0003
     44 C         138.0209  143.9218  162.6620 C.ar    1  UNL1       -0.0043
@<TRIPOS>BOND
     1    35    36    1
     2    36    29    1
     3    29    30    1
     4    30    31    1
     5    31    32    1
     6    32    33    1
     7    33    34    1
     8    34    27    1
     9     1    27    1
    10     1     2    1
    11     3     2    1
    12     3     4    1
    13     4     5    1
    14     5     6   am
    15     6     7    2
    16     6    37    1
    17    37    38    1
    18    38    39    1
    19    39    40   ar
    20    40    41   ar
    21    41    42   ar
    22    42    43   ar
    23    43    44   ar
    24     5     8    1
    25     8     9    1
    26     9    11    1
    27    11    12    2
    28    11    13   am
    29    13    14    1
    30    14    15    1
    31    15    16    1
    32    16    17   ar
    33    17    18   ar
    34    18    19   ar
    35    19    23    1
    36    23    24    1
    37    23    25    1
    38    23    26    1
    39    19    20   ar
    40    20    21   ar
    41    21    22    1
    42     9    10    1
    43    34    29    1
    44    10     1    1
    45     9     3    1
    46    22    13    1
    47    44    39   ar
    48    21    16   ar
    49    27    28    1
@<TRIPOS>MOLECULE
*****
 44 49 0 0 0
SMALL
GASTEIGER

@<TRIPOS>ATOM
      1 C         138.7442  141.7943  159.7155 C.3     1  UNL1        0.0546
      2 C         138.2645  140.4346  159.3021 C.3     1  UNL1        0.0180
      3 C         139.3788  139.7548  158.5631 C.3     1  UNL1        0.0310
      4 C         139.7710  138.4943  157.8509 C.3     1  UNL1        0.0939
      5 N         141.1819  138.6549  157.3674 N.am    1  UNL1       -0.2790
      6 C         141.9739  137.6347  156.6044 C.2     1  UNL1        0.2260
      7 O         143.3819  137.9384  156.1854 O.2     1  UNL1       -0.2749
      8 C         141.6616  140.0146  157.7808 C.3     1  UNL1        0.1020
      9 C         140.5473  140.6944  158.5197 C.3     1  UNL1        0.0902
     10 C         140.1550  141.9549  159.2320 C.3     1  UNL1        0.0261
     11 C         141.7157  141.6341  158.4764 C.2     1  UNL1        0.2267
     12 O         141.8879  142.5635  157.3118 O.2     1  UNL1       -0.2748
     13 N         142.7119  141.6443  159.5978 N.am    1  UNL1       -0.2750
     14 C         143.8803  142.5839  159.5545 C.3     1  UNL1        0.1000
     15 C         144.8765  142.5941  160.6759 C.3     1  UNL1        0.0670
     16 C         144.7042  141.6646  161.8406 C.ar    1  UNL1        0.0583
     17 N         145.7005  141.6749  162.9620 N.ar    1  UNL1       -0.2484
     18 C         145.5283  140.7454  164.1266 C.ar    1  UNL1        0.1023
     19 C         144.3598  139.8058  164.1699 C.ar    1  UNL1        0.0902
     20 C         143.3636  139.7956  163.0486 C.ar    1  UNL1        0.0040
     21 C         143.5359  140.7250  161.8839 C.ar    1  UNL1        0.0113
     22 C         142.5397  140.7148  160.7625 C.3     1  UNL1        0.1213
     23 C         144.1876  138.8763  165.3346 C.3     1  UNL1        0.4200
     24 F         144.0154  137.9469  166.4993 F       1  UNL1       -0.1658
     25 F         142.7124  139.1482  165.3334 F       1  UNL1       -0.1658
     26 F         145.6627  138.6044  165.3358 F       1  UNL1       -0.1658
     27 N         137.9521  142.8145  160.4784 N.3     1  UNL1       -0.2975
     28 H         138.2262  143.7289  160.1192 H       1  UNL1        0.1232
     29 C         138.4418  144.1760  162.6363 C.3     1  UNL1        0.1591
     30 C         138.5521  144.2468  164.1306 C.3     1  UNL1        0.1729
     31 O         138.2831  143.0272  164.9612 O.3     1  UNL1       -0.3511
     32 C         137.9037  141.7365  164.2976 C.3     1  UNL1        0.1437
     33 C         137.7934  141.6656  162.8033 C.3     1  UNL1        0.0503
     34 C         138.0624  142.8854  161.9727 C.3     1  UNL1        0.0865
     35 C         139.9731  146.1796  162.0112 C.3     1  UNL1        0.1742
     36 O         138.7108  145.3956  161.8057 O.3     1  UNL1       -0.3496
     37 C         141.3581  136.3110  156.2605 C.3     1  UNL1        0.0899
     38 C         142.1053  135.3377  155.3977 C.3     1  UNL1        0.0359
     39 C         142.6485  134.0721  155.9920 C.ar    1  UNL1       -0.0217
     40 C         143.8478  134.1203  156.8917 C.ar    1  UNL1       -0.0043
     41 C         144.3909  132.8547  157.4859 C.ar    1  UNL1       -0.0003
     42 C         143.7349  131.5408  157.1805 C.ar    1  UNL1       -0.0000
     43 C         142.5356  131.4926  156.2808 C.ar    1  UNL1       -0.0003
     44 C         141.9925  132.7582  155.6866 C.ar    1  UNL1       -0.0043
@<TRIPOS>BOND
     1    35    36    1
     2    36    29    1
     3    29    30    1
     4    30    31    1
     5    31    32    1
     6    32    33    1
     7    33    34    1
     8    34    27    1
     9     1    27    1
    10     1     2    1
    11     3     2    1
    12     3     4    1
    13     4     5    1
    14     5     6   am
    15     6     7    2
    16     6    37    1
    17    37    38    1
    18    38    39    1
    19    39    40   ar
    20    40    41   ar
    21    41    42   ar
    22    42    43   ar
    23    43    44   ar
    24     5     8    1
    25     8     9    1
    26     9    11    1
    27    11    12    2
    28    11    13   am
    29    13    14    1
    30    14    15    1
    31    15    16    1
    32    16    17   ar
    33    17    18   ar
    34    18    19   ar
    35    19    23    1
    36    23    24    1
    37    23    25    1
    38    23    26    1
    39    19    20   ar
    40    20    21   ar
    41    21    22    1
    42     9    10    1
    43    34    29    1
    44    10     1    1
    45     9     3    1
    46    22    13    1
    47    44    39   ar
    48    21    16   ar
    49    27    28    1
@<TRIPOS>MOLECULE
*****
 44 49 0 0 0
SMALL
GASTEIGER

@<TRIPOS>ATOM
      1 C         142.0337  138.3016  158.2591 C.3     1  UNL1        0.0546
      2 C         142.3424  137.5684  159.5308 C.3     1  UNL1        0.0180
      3 C         143.0740  138.5088  160.4421 C.3     1  UNL1        0.0310
      4 C         143.7170  138.6369  161.7912 C.3     1  UNL1        0.0939
      5 N         144.2578  140.0304  161.9165 N.am    1  UNL1       -0.2790
      6 C         144.9806  140.5921  163.1049 C.2     1  UNL1        0.2260
      7 O         145.4661  142.0112  163.0855 O.2     1  UNL1       -0.2749
      8 C         143.9491  140.7635  160.6448 C.3     1  UNL1        0.1020
      9 C         143.2175  139.8232  159.7336 C.3     1  UNL1        0.0902
     10 C         142.5745  139.6951  158.3844 C.3     1  UNL1        0.0261
     11 C         143.3610  141.1374  159.0251 C.2     1  UNL1        0.2267
     12 O         144.2882  141.2600  157.8524 O.2     1  UNL1       -0.2748
     13 N         142.5771  142.3292  159.4892 N.am    1  UNL1       -0.2750
     14 C         142.7206  143.6435  158.7807 C.3     1  UNL1        0.1000
     15 C         141.9368  144.8352  159.2449 C.3     1  UNL1        0.0670
     16 C         141.0095  144.7126  160.4176 C.ar    1  UNL1        0.0583
     17 N         140.2257  145.9044  160.8817 N.ar    1  UNL1       -0.2484
     18 C         139.2985  145.7818  162.0544 C.ar    1  UNL1        0.1023
     19 C         139.1550  144.4674  162.7629 C.ar    1  UNL1        0.0902
     20 C         139.9388  143.2757  162.2987 C.ar    1  UNL1        0.0040
     21 C         140.8661  143.3983  161.1261 C.ar    1  UNL1        0.0113
     22 C         141.6499  142.2066  160.6619 C.3     1  UNL1        0.1213
     23 C         138.2278  144.3448  163.9356 C.3     1  UNL1        0.4200
     24 F         137.3005  144.2222  165.1083 F       1  UNL1       -0.1658
     25 F         137.2961  143.5067  163.1113 F       1  UNL1       -0.1658
     26 F         139.1595  145.1829  164.7599 F       1  UNL1       -0.1658
     27 N         141.3110  137.7399  157.0707 N.3     1  UNL1       -0.2975
     28 H         140.3893  137.4492  157.3969 H       1  UNL1        0.1232
     29 C         141.0476  135.8248  155.3349 C.3     1  UNL1        0.1591
     30 C         141.6278  134.6626  154.5847 C.3     1  UNL1        0.1729
     31 O         143.0516  134.2534  154.8201 O.3     1  UNL1       -0.3511
     32 C         143.8952  135.0064  155.8058 C.3     1  UNL1        0.1437
     33 C         143.3150  136.1685  156.5560 C.3     1  UNL1        0.0503
     34 C         141.8912  136.5777  156.3205 C.3     1  UNL1        0.0865
     35 C         139.2832  137.1374  153.9515 C.3     1  UNL1        0.1742
     36 O         139.6239  136.2339  155.0995 O.3     1  UNL1       -0.3496
     37 C         145.2176  139.7347  164.3126 C.3     1  UNL1        0.0899
     38 C         144.0628  139.3158  165.1734 C.3     1  UNL1        0.0359
     39 C         142.8959  140.2389  165.3641 C.ar    1  UNL1       -0.0217
     40 C         143.0888  141.5604  166.0470 C.ar    1  UNL1       -0.0043
     41 C         141.9219  142.4834  166.2377 C.ar    1  UNL1       -0.0003
     42 C         140.5622  142.0849  165.7455 C.ar    1  UNL1       -0.0000
     43 C         140.3693  140.7634  165.0625 C.ar    1  UNL1       -0.0003
     44 C         141.5362  139.8404  164.8718 C.ar    1  UNL1       -0.0043
@<TRIPOS>BOND
     1    35    36    1
     2    36    29    1
     3    29    30    1
     4    30    31    1
     5    31    32    1
     6    32    33    1
     7    33    34    1
     8    34    27    1
     9     1    27    1
    10     1     2    1
    11     3     2    1
    12     3     4    1
    13     4     5    1
    14     5     6   am
    15     6     7    2
    16     6    37    1
    17    37    38    1
    18    38    39    1
    19    39    40   ar
    20    40    41   ar
    21    41    42   ar
    22    42    43   ar
    23    43    44   ar
    24     5     8    1
    25     8     9    1
    26     9    11    1
    27    11    12    2
    28    11    13   am
    29    13    14    1
    30    14    15    1
    31    15    16    1
    32    16    17   ar
    33    17    18   ar
    34    18    19   ar
    35    19    23    1
    36    23    24    1
    37    23    25    1
    38    23    26    1
    39    19    20   ar
    40    20    21   ar
    41    21    22    1
    42     9    10    1
    43    34    29    1
    44    10     1    1
    45     9     3    1
    46    22    13    1
    47    44    39   ar
    48    21    16   ar
    49    27    28    1
@<TRIPOS>MOLECULE
*****
 44 49 0 0 0
SMALL
GASTEIGER

@<TRIPOS>ATOM
      1 C         139.5091  142.8704  159.9458 C.3     1  UNL1        0.0546
      2 C         140.4376  143.7920  159.2120 C.3     1  UNL1        0.0180
      3 C         141.5516  142.9675  158.6385 C.3     1  UNL1        0.0310
      4 C         142.8140  143.0274  157.8305 C.3     1  UNL1        0.0939
      5 N         143.3543  141.6332  157.7106 N.am    1  UNL1       -0.2790
      6 C         144.6037  141.2313  156.9842 C.2     1  UNL1        0.2260
      7 O         145.0206  139.7908  156.9497 O.2     1  UNL1       -0.2749
      8 C         142.4258  140.7116  158.4444 C.3     1  UNL1        0.1020
      9 C         141.3117  141.5362  159.0179 C.3     1  UNL1        0.0902
     10 C         140.0494  141.4762  159.8259 C.3     1  UNL1        0.0261
     11 C         141.0718  140.1050  159.3973 C.2     1  UNL1        0.2267
     12 O         140.6058  139.1230  158.3636 O.2     1  UNL1       -0.2748
     13 N         141.2979  139.6556  160.8105 N.am    1  UNL1       -0.2750
     14 C         141.0580  138.2244  161.1899 C.3     1  UNL1        0.1000
     15 C         141.2841  137.7752  162.6031 C.3     1  UNL1        0.0670
     16 C         141.7501  138.7571  163.6368 C.ar    1  UNL1        0.0583
     17 N         141.9762  138.3078  165.0500 N.ar    1  UNL1       -0.2484
     18 C         142.4423  139.2898  166.0837 C.ar    1  UNL1        0.1023
     19 C         142.6822  140.7211  165.7042 C.ar    1  UNL1        0.0902
     20 C         142.4561  141.1703  164.2911 C.ar    1  UNL1        0.0040
     21 C         141.9901  140.1883  163.2574 C.ar    1  UNL1        0.0113
     22 C         141.7640  140.6376  161.8442 C.3     1  UNL1        0.1213
     23 C         143.1482  141.7030  166.7379 C.3     1  UNL1        0.4200
     24 F         143.6143  142.6850  167.7716 F       1  UNL1       -0.1658
     25 F         143.4235  142.7081  165.6590 F       1  UNL1       -0.1658
     26 F         142.8729  140.6979  167.8168 F       1  UNL1       -0.1658
     27 N         138.2597  143.2724  160.6721 N.3     1  UNL1       -0.2975
     28 H         137.9552  144.1574  160.2667 H       1  UNL1        0.1232
     29 C         137.6847  142.4252  163.0599 C.3     1  UNL1        0.1591
     30 C         137.7105  142.6164  164.5474 C.3     1  UNL1        0.1729
     31 O         138.3372  143.8462  165.1347 O.3     1  UNL1       -0.3511
     32 C         138.9381  144.8847  164.2344 C.3     1  UNL1        0.1437
     33 C         138.9123  144.6935  162.7469 C.3     1  UNL1        0.0503
     34 C         138.2855  143.4636  162.1596 C.3     1  UNL1        0.0865
     35 C         137.8754  139.9508  162.2909 C.3     1  UNL1        0.1742
     36 O         137.0580  141.1954  162.4726 O.3     1  UNL1       -0.3496
     37 C         145.4361  142.2698  156.2925 C.3     1  UNL1        0.0899
     38 C         146.9069  142.3608  156.5728 C.3     1  UNL1        0.0359
     39 C         147.8801  142.4889  155.4385 C.ar    1  UNL1       -0.0217
     40 C         147.5508  143.3599  154.2626 C.ar    1  UNL1       -0.0043
     41 C         148.5240  143.4879  153.1283 C.ar    1  UNL1       -0.0003
     42 C         149.8264  142.7450  153.1700 C.ar    1  UNL1       -0.0000
     43 C         150.1556  141.8739  154.3460 C.ar    1  UNL1       -0.0003
     44 C         149.1825  141.7459  155.4802 C.ar    1  UNL1       -0.0043
@<TRIPOS>BOND
     1    35    36    1
     2    36    29    1
     3    29    30    1
     4    30    31    1
     5    31    32    1
     6    32    33    1
     7    33    34    1
     8    34    27    1
     9     1    27    1
    10     1     2    1
    11     3     2    1
    12     3     4    1
    13     4     5    1
    14     5     6   am
    15     6     7    2
    16     6    37    1
    17    37    38    1
    18    38    39    1
    19    39    40   ar
    20    40    41   ar
    21    41    42   ar
    22    42    43   ar
    23    43    44   ar
    24     5     8    1
    25     8     9    1
    26     9    11    1
    27    11    12    2
    28    11    13   am
    29    13    14    1
    30    14    15    1
    31    15    16    1
    32    16    17   ar
    33    17    18   ar
    34    18    19   ar
    35    19    23    1
    36    23    24    1
    37    23    25    1
    38    23    26    1
    39    19    20   ar
    40    20    21   ar
    41    21    22    1
    42     9    10    1
    43    34    29    1
    44    10     1    1
    45     9     3    1
    46    22    13    1
    47    44    39   ar
    48    21    16   ar
    49    27    28    1
@<TRIPOS>MOLECULE
*****
 44 49 0 0 0
SMALL
GASTEIGER

@<TRIPOS>ATOM
      1 C         142.2834  143.2861  157.3350 C.3     1  UNL1        0.0546
      2 C         143.4792  142.4675  157.7223 C.3     1  UNL1        0.0180
      3 C         143.6759  142.6059  159.2029 C.3     1  UNL1        0.0310
      4 C         144.5365  142.1856  160.3573 C.3     1  UNL1        0.0939
      5 N         143.9941  142.8299  161.5985 N.am    1  UNL1       -0.2790
      6 C         144.5500  142.6816  162.9839 C.2     1  UNL1        0.2260
      7 O         143.8976  143.3905  164.1336 O.2     1  UNL1       -0.2749
      8 C         142.7983  143.6484  161.2113 C.3     1  UNL1        0.1020
      9 C         142.6016  143.5100  159.7307 C.3     1  UNL1        0.0902
     10 C         141.7410  143.9304  158.5763 C.3     1  UNL1        0.0261
     11 C         141.5274  144.4141  160.2585 C.2     1  UNL1        0.2267
     12 O         141.4436  145.8351  159.7855 O.2     1  UNL1       -0.2748
     13 N         140.5368  143.8972  161.2593 N.am    1  UNL1       -0.2750
     14 C         139.4625  144.8013  161.7871 C.3     1  UNL1        0.1000
     15 C         138.4720  144.2844  162.7879 C.3     1  UNL1        0.0670
     16 C         138.5558  142.8634  163.2609 C.ar    1  UNL1        0.0583
     17 N         137.5652  142.3465  164.2618 N.ar    1  UNL1       -0.2484
     18 C         137.6489  140.9255  164.7348 C.ar    1  UNL1        0.1023
     19 C         138.7232  140.0214  164.2070 C.ar    1  UNL1        0.0902
     20 C         139.7137  140.5383  163.2062 C.ar    1  UNL1        0.0040
     21 C         139.6300  141.9593  162.7332 C.ar    1  UNL1        0.0113
     22 C         140.6205  142.4762  161.7324 C.3     1  UNL1        0.1213
     23 C         138.8069  138.6004  164.6800 C.3     1  UNL1        0.4200
     24 F         138.8907  137.1794  165.1530 F       1  UNL1       -0.1658
     25 F         138.4835  138.1207  163.2960 F       1  UNL1       -0.1658
     26 F         139.1303  139.0801  166.0639 F       1  UNL1       -0.1658
     27 N         141.7275  143.4343  155.9497 N.3     1  UNL1       -0.2975
     28 H         142.5196  143.6106  155.3318 H       1  UNL1        0.1232
     29 C         139.2454  144.1716  155.7353 C.3     1  UNL1        0.1591
     30 C         138.2260  145.2332  155.4460 C.3     1  UNL1        0.1729
     31 O         138.6691  146.6191  155.0816 O.3     1  UNL1       -0.3511
     32 C         140.1317  146.9435  155.0065 C.3     1  UNL1        0.1437
     33 C         141.1512  145.8819  155.2959 C.3     1  UNL1        0.0503
     34 C         140.7080  144.4959  155.6603 C.3     1  UNL1        0.0865
     35 C         138.2516  142.5096  157.4675 C.3     1  UNL1        0.1742
     36 O         138.8023  142.7857  156.0997 O.3     1  UNL1       -0.3496
     37 C         145.7583  141.8245  163.2194 C.3     1  UNL1        0.0899
     38 C         145.6557  140.6063  164.0884 C.3     1  UNL1        0.0359
     39 C         144.4690  139.6967  163.9679 C.ar    1  UNL1       -0.0217
     40 C         144.0976  139.1213  162.6334 C.ar    1  UNL1       -0.0043
     41 C         142.9109  138.2118  162.5129 C.ar    1  UNL1       -0.0003
     42 C         142.0956  137.8778  163.7268 C.ar    1  UNL1       -0.0000
     43 C         142.4670  138.4532  165.0613 C.ar    1  UNL1       -0.0003
     44 C         143.6537  139.3627  165.1818 C.ar    1  UNL1       -0.0043
@<TRIPOS>BOND
     1    35    36    1
     2    36    29    1
     3    29    30    1
     4    30    31    1
     5    31    32    1
     6    32    33    1
     7    33    34    1
     8    34    27    1
     9     1    27    1
    10     1     2    1
    11     3     2    1
    12     3     4    1
    13     4     5    1
    14     5     6   am
    15     6     7    2
    16     6    37    1
    17    37    38    1
    18    38    39    1
    19    39    40   ar
    20    40    41   ar
    21    41    42   ar
    22    42    43   ar
    23    43    44   ar
    24     5     8    1
    25     8     9    1
    26     9    11    1
    27    11    12    2
    28    11    13   am
    29    13    14    1
    30    14    15    1
    31    15    16    1
    32    16    17   ar
    33    17    18   ar
    34    18    19   ar
    35    19    23    1
    36    23    24    1
    37    23    25    1
    38    23    26    1
    39    19    20   ar
    40    20    21   ar
    41    21    22    1
    42     9    10    1
    43    34    29    1
    44    10     1    1
    45     9     3    1
    46    22    13    1
    47    44    39   ar
    48    21    16   ar
    49    27    28    1
@<TRIPOS>MOLECULE
*****
 44 49 0 0 0
SMALL
GASTEIGER

@<TRIPOS>ATOM
      1 C         139.3996  140.9082  158.6500 C.3     1  UNL1        0.0546
      2 C         139.1767  139.5069  158.1634 C.3     1  UNL1        0.0180
      3 C         140.4647  139.0094  157.5772 C.3     1  UNL1        0.0310
      4 C         141.1229  137.8359  156.9141 C.3     1  UNL1        0.0939
      5 N         142.5486  138.2045  156.6286 N.am    1  UNL1       -0.2790
      6 C         143.5718  137.3259  155.9717 C.2     1  UNL1        0.2260
      7 O         144.9658  137.8339  155.7509 O.2     1  UNL1       -0.2749
      8 C         142.7715  139.6057  157.1152 C.3     1  UNL1        0.1020
      9 C         141.4836  140.1032  157.7014 C.3     1  UNL1        0.0902
     10 C         140.8254  141.2767  158.3645 C.3     1  UNL1        0.0261
     11 C         142.5025  141.1970  157.8257 C.2     1  UNL1        0.2267
     12 O         142.7400  142.1346  156.6792 O.2     1  UNL1       -0.2748
     13 N         143.2840  141.3532  159.0965 N.am    1  UNL1       -0.2750
     14 C         144.3029  142.4470  159.2208 C.3     1  UNL1        0.1000
     15 C         145.0843  142.6031  160.4916 C.3     1  UNL1        0.0670
     16 C         144.8468  141.6655  161.6381 C.ar    1  UNL1        0.0583
     17 N         145.6283  141.8217  162.9089 N.ar    1  UNL1       -0.2484
     18 C         145.3909  140.8841  164.0555 C.ar    1  UNL1        0.1023
     19 C         144.3719  139.7903  163.9311 C.ar    1  UNL1        0.0902
     20 C         143.5905  139.6341  162.6604 C.ar    1  UNL1        0.0040
     21 C         143.8280  140.5717  161.5138 C.ar    1  UNL1        0.0113
     22 C         143.0465  140.4156  160.2431 C.3     1  UNL1        0.1213
     23 C         144.1345  138.8527  165.0777 C.3     1  UNL1        0.4200
     24 F         143.8970  137.9151  166.2242 F       1  UNL1       -0.1658
     25 F         142.6536  138.9849  164.8791 F       1  UNL1       -0.1658
     26 F         145.6154  138.7204  165.2762 F       1  UNL1       -0.1658
     27 N         138.3765  141.7867  159.3069 N.3     1  UNL1       -0.2975
     28 H         138.4711  142.7123  158.8888 H       1  UNL1        0.1232
     29 C         137.8809  140.8989  161.6977 C.3     1  UNL1        0.1591
     30 C         137.9016  141.0914  163.1851 C.3     1  UNL1        0.1729
     31 O         138.4386  142.3644  163.7692 O.3     1  UNL1       -0.3511
     32 C         138.9549  143.4449  162.8658 C.3     1  UNL1        0.1437
     33 C         138.9342  143.2523  161.3784 C.3     1  UNL1        0.0503
     34 C         138.3972  141.9793  160.7943 C.3     1  UNL1        0.0865
     35 C         137.7443  138.3043  161.6997 C.3     1  UNL1        0.1742
     36 O         137.3439  139.6259  161.1136 O.3     1  UNL1       -0.3496
     37 C         143.2010  135.9395  155.5357 C.3     1  UNL1        0.0899
     38 C         142.8778  134.8924  156.5600 C.3     1  UNL1        0.0359
     39 C         143.6127  133.5847  156.5535 C.ar    1  UNL1       -0.0217
     40 C         144.4573  133.1931  157.7296 C.ar    1  UNL1       -0.0043
     41 C         145.1921  131.8855  157.7230 C.ar    1  UNL1       -0.0003
     42 C         145.0824  130.9695  156.5402 C.ar    1  UNL1       -0.0000
     43 C         144.2378  131.3611  155.3641 C.ar    1  UNL1       -0.0003
     44 C         143.5030  132.6687  155.3707 C.ar    1  UNL1       -0.0043
@<TRIPOS>BOND
     1    35    36    1
     2    36    29    1
     3    29    30    1
     4    30    31    1
     5    31    32    1
     6    32    33    1
     7    33    34    1
     8    34    27    1
     9     1    27    1
    10     1     2    1
    11     3     2    1
    12     3     4    1
    13     4     5    1
    14     5     6   am
    15     6     7    2
    16     6    37    1
    17    37    38    1
    18    38    39    1
    19    39    40   ar
    20    40    41   ar
    21    41    42   ar
    22    42    43   ar
    23    43    44   ar
    24     5     8    1
    25     8     9    1
    26     9    11    1
    27    11    12    2
    28    11    13   am
    29    13    14    1
    30    14    15    1
    31    15    16    1
    32    16    17   ar
    33    17    18   ar
    34    18    19   ar
    35    19    23    1
    36    23    24    1
    37    23    25    1
    38    23    26    1
    39    19    20   ar
    40    20    21   ar
    41    21    22    1
    42     9    10    1
    43    34    29    1
    44    10     1    1
    45     9     3    1
    46    22    13    1
    47    44    39   ar
    48    21    16   ar
    49    27    28    1
@<TRIPOS>MOLECULE
*****
 44 49 0 0 0
SMALL
GASTEIGER

@<TRIPOS>ATOM
      1 C         140.0632  139.8571  159.6199 C.3     1  UNL1        0.0546
      2 C         139.0162  140.7919  159.0907 C.3     1  UNL1        0.0180
      3 C         139.6835  142.0924  158.7542 C.3     1  UNL1        0.0310
      4 C         139.4489  143.4740  158.2191 C.3     1  UNL1        0.0939
      5 N         140.7633  144.1968  158.2097 N.am    1  UNL1       -0.2790
      6 C         140.9907  145.6069  157.7514 C.2     1  UNL1        0.2260
      7 O         142.3683  146.1985  157.8005 O.2     1  UNL1       -0.2749
      8 C         141.8102  143.2620  158.7388 C.3     1  UNL1        0.1020
      9 C         141.1429  141.9614  159.0754 C.3     1  UNL1        0.0902
     10 C         141.3775  140.5799  159.6104 C.3     1  UNL1        0.0261
     11 C         142.6022  141.8304  159.3966 C.2     1  UNL1        0.2267
     12 O         143.5954  141.6061  158.2951 O.2     1  UNL1       -0.2748
     13 N         143.0683  141.9236  160.8193 N.am    1  UNL1       -0.2750
     14 C         144.5276  141.7926  161.1405 C.3     1  UNL1        0.1000
     15 C         144.9937  141.8858  162.5632 C.3     1  UNL1        0.0670
     16 C         144.0005  142.1101  163.6647 C.ar    1  UNL1        0.0583
     17 N         144.4666  142.2034  165.0874 N.ar    1  UNL1       -0.2484
     18 C         143.4734  142.4276  166.1889 C.ar    1  UNL1        0.1023
     19 C         142.0140  142.5587  165.8676 C.ar    1  UNL1        0.0902
     20 C         141.5480  142.4654  164.4449 C.ar    1  UNL1        0.0040
     21 C         142.5412  142.2412  163.3435 C.ar    1  UNL1        0.0113
     22 C         142.0751  142.1479  161.9208 C.3     1  UNL1        0.1213
     23 C         141.0208  142.7830  166.9690 C.3     1  UNL1        0.4200
     24 F         140.0276  143.0073  168.0705 F       1  UNL1       -0.1658
     25 F         140.0907  143.4443  165.9956 F       1  UNL1       -0.1658
     26 F         141.9509  142.1217  167.9424 F       1  UNL1       -0.1658
     27 N         139.8357  138.4469  160.0781 N.3     1  UNL1       -0.2975
     28 H         138.8970  138.1868  159.7757 H       1  UNL1        0.1232
     29 C         141.2386  137.6618  162.1190 C.3     1  UNL1        0.1591
     30 C         141.3333  137.3226  163.5771 C.3     1  UNL1        0.1729
     31 O         140.1199  137.4292  164.4523 O.3     1  UNL1       -0.3511
     32 C         138.8116  137.8750  163.8695 C.3     1  UNL1        0.1437
     33 C         138.7168  138.2143  162.4114 C.3     1  UNL1        0.0503
     34 C         139.9304  138.1077  161.5362 C.3     1  UNL1        0.0865
     35 C         143.7430  138.1887  161.6711 C.3     1  UNL1        0.1742
     36 O         142.4521  137.5552  161.2438 O.3     1  UNL1       -0.3496
     37 C         139.8406  146.4254  157.2441 C.3     1  UNL1        0.0899
     38 C         139.6324  146.5924  155.7681 C.3     1  UNL1        0.0359
     39 C         139.5277  147.9668  155.1762 C.ar    1  UNL1       -0.0217
     40 C         140.1692  148.2646  153.8534 C.ar    1  UNL1       -0.0043
     41 C         140.0644  149.6388  153.2616 C.ar    1  UNL1       -0.0003
     42 C         139.3181  150.7153  153.9925 C.ar    1  UNL1       -0.0000
     43 C         138.6766  150.4175  155.3153 C.ar    1  UNL1       -0.0003
     44 C         138.7814  149.0433  155.9071 C.ar    1  UNL1       -0.0043
@<TRIPOS>BOND
     1    35    36    1
     2    36    29    1
     3    29    30    1
     4    30    31    1
     5    31    32    1
     6    32    33    1
     7    33    34    1
     8    34    27    1
     9     1    27    1
    10     1     2    1
    11     3     2    1
    12     3     4    1
    13     4     5    1
    14     5     6   am
    15     6     7    2
    16     6    37    1
    17    37    38    1
    18    38    39    1
    19    39    40   ar
    20    40    41   ar
    21    41    42   ar
    22    42    43   ar
    23    43    44   ar
    24     5     8    1
    25     8     9    1
    26     9    11    1
    27    11    12    2
    28    11    13   am
    29    13    14    1
    30    14    15    1
    31    15    16    1
    32    16    17   ar
    33    17    18   ar
    34    18    19   ar
    35    19    23    1
    36    23    24    1
    37    23    25    1
    38    23    26    1
    39    19    20   ar
    40    20    21   ar
    41    21    22    1
    42     9    10    1
    43    34    29    1
    44    10     1    1
    45     9     3    1
    46    22    13    1
    47    44    39   ar
    48    21    16   ar
    49    27    28    1
@<TRIPOS>MOLECULE
*****
 44 49 0 0 0
SMALL
GASTEIGER

@<TRIPOS>ATOM
      1 C         144.4091  140.2298  161.2799 C.3     1  UNL1        0.0546
      2 C         143.9006  138.8363  161.0571 C.3     1  UNL1        0.0180
      3 C         143.1572  138.8169  159.7544 C.3     1  UNL1        0.0310
      4 C         142.3836  137.9437  158.8116 C.3     1  UNL1        0.0939
      5 N         141.9545  138.7854  157.6465 N.am    1  UNL1       -0.2790
      6 C         141.1569  138.3161  156.4660 C.2     1  UNL1        0.2260
      7 O         140.8007  139.2778  155.3714 O.2     1  UNL1       -0.2749
      8 C         142.4630  140.1789  157.8693 C.3     1  UNL1        0.1020
      9 C         143.2063  140.1984  159.1720 C.3     1  UNL1        0.0902
     10 C         143.9800  141.0716  160.1148 C.3     1  UNL1        0.0261
     11 C         143.2554  141.5798  158.5897 C.2     1  UNL1        0.2267
     12 O         144.1438  141.8678  157.4159 O.2     1  UNL1       -0.2748
     13 N         142.4162  142.6734  159.1812 N.am    1  UNL1       -0.2750
     14 C         142.4653  144.0548  158.5989 C.3     1  UNL1        0.1000
     15 C         141.6260  145.1483  159.1904 C.3     1  UNL1        0.0670
     16 C         140.7377  144.8603  160.3642 C.ar    1  UNL1        0.0583
     17 N         139.8984  145.9539  160.9557 N.ar    1  UNL1       -0.2484
     18 C         139.0100  145.6659  162.1295 C.ar    1  UNL1        0.1023
     19 C         138.9609  144.2844  162.7119 C.ar    1  UNL1        0.0902
     20 C         139.8002  143.1909  162.1204 C.ar    1  UNL1        0.0040
     21 C         140.6885  143.4789  160.9465 C.ar    1  UNL1        0.0113
     22 C         141.5278  142.3854  160.3550 C.3     1  UNL1        0.1213
     23 C         138.0726  143.9964  163.8857 C.3     1  UNL1        0.4200
     24 F         137.1842  143.7084  165.0595 F       1  UNL1       -0.1658
     25 F         138.7475  145.0867  164.6640 F       1  UNL1       -0.1658
     26 F         137.3976  142.9061  163.1074 F       1  UNL1       -0.1658
     27 N         145.2066  140.6991  162.4605 N.3     1  UNL1       -0.2975
     28 H         145.5663  139.8644  162.9235 H       1  UNL1        0.1232
     29 C         143.9934  140.8847  164.7503 C.3     1  UNL1        0.1591
     30 C         143.3415  141.7214  165.8110 C.3     1  UNL1        0.1729
     31 O         143.2510  143.2091  165.6425 O.3     1  UNL1       -0.3511
     32 C         143.8124  143.8603  164.4133 C.3     1  UNL1        0.1437
     33 C         144.4643  143.0236  163.3526 C.3     1  UNL1        0.0503
     34 C         144.5548  141.5358  163.5212 C.3     1  UNL1        0.0865
     35 C         142.8646  138.5448  164.7259 C.3     1  UNL1        0.1742
     36 O         144.0839  139.3970  164.9188 O.3     1  UNL1       -0.3496
     37 C         140.7157  136.8851  156.3800 C.3     1  UNL1        0.0899
     38 C         141.3966  135.9461  155.4290 C.3     1  UNL1        0.0359
     39 C         142.0633  134.7064  155.9473 C.ar    1  UNL1       -0.0217
     40 C         141.6143  133.3575  155.4692 C.ar    1  UNL1       -0.0043
     41 C         142.2810  132.1178  155.9876 C.ar    1  UNL1       -0.0003
     42 C         143.3968  132.2271  156.9841 C.ar    1  UNL1       -0.0000
     43 C         143.8458  133.5761  157.4623 C.ar    1  UNL1       -0.0003
     44 C         143.1791  134.8157  156.9439 C.ar    1  UNL1       -0.0043
@<TRIPOS>BOND
     1    35    36    1
     2    36    29    1
     3    29    30    1
     4    30    31    1
     5    31    32    1
     6    32    33    1
     7    33    34    1
     8    34    27    1
     9     1    27    1
    10     1     2    1
    11     3     2    1
    12     3     4    1
    13     4     5    1
    14     5     6   am
    15     6     7    2
    16     6    37    1
    17    37    38    1
    18    38    39    1
    19    39    40   ar
    20    40    41   ar
    21    41    42   ar
    22    42    43   ar
    23    43    44   ar
    24     5     8    1
    25     8     9    1
    26     9    11    1
    27    11    12    2
    28    11    13   am
    29    13    14    1
    30    14    15    1
    31    15    16    1
    32    16    17   ar
    33    17    18   ar
    34    18    19   ar
    35    19    23    1
    36    23    24    1
    37    23    25    1
    38    23    26    1
    39    19    20   ar
    40    20    21   ar
    41    21    22    1
    42     9    10    1
    43    34    29    1
    44    10     1    1
    45     9     3    1
    46    22    13    1
    47    44    39   ar
    48    21    16   ar
    49    27    28    1
@<TRIPOS>MOLECULE
*****
 44 49 0 0 0
SMALL
GASTEIGER

@<TRIPOS>ATOM
      1 C         143.1529  142.3556  158.5534 C.3     1  UNL1        0.0546
      2 C         143.2569  143.7087  157.9144 C.3     1  UNL1        0.0180
      3 C         141.9337  144.0262  157.2833 C.3     1  UNL1        0.0310
      4 C         141.1802  145.0587  156.4983 C.3     1  UNL1        0.0939
      5 N         139.7927  144.5399  156.2620 N.am    1  UNL1       -0.2790
      6 C         138.7010  145.2497  155.5174 C.2     1  UNL1        0.2260
      7 O         137.3568  144.6027  155.3606 O.2     1  UNL1       -0.2749
      8 C         139.6887  143.1868  156.9009 C.3     1  UNL1        0.1020
      9 C         141.0119  142.8693  157.5321 C.3     1  UNL1        0.0902
     10 C         141.7654  141.8368  158.3170 C.3     1  UNL1        0.0261
     11 C         140.0902  141.7124  157.7809 C.2     1  UNL1        0.2267
     12 O         139.8954  140.6676  156.7224 O.2     1  UNL1       -0.2748
     13 N         139.3632  141.6003  159.0882 N.am    1  UNL1       -0.2750
     14 C         138.4415  140.4434  159.3370 C.3     1  UNL1        0.1000
     15 C         137.7146  140.3314  160.6443 C.3     1  UNL1        0.0670
     16 C         137.9094  141.3763  161.7028 C.ar    1  UNL1        0.0583
     17 N         137.1824  141.2642  163.0101 N.ar    1  UNL1       -0.2484
     18 C         137.3772  142.3091  164.0685 C.ar    1  UNL1        0.1023
     19 C         138.2990  143.4660  163.8196 C.ar    1  UNL1        0.0902
     20 C         139.0259  143.5780  162.5124 C.ar    1  UNL1        0.0040
     21 C         138.8311  142.5332  161.4539 C.ar    1  UNL1        0.0113
     22 C         139.5580  142.6452  160.1467 C.3     1  UNL1        0.1213
     23 C         138.4938  144.5109  164.8781 C.3     1  UNL1        0.4200
     24 F         138.6887  145.5557  165.9365 F       1  UNL1       -0.1658
     25 F         139.9534  144.5816  164.5396 F       1  UNL1       -0.1658
     26 F         137.0343  144.4401  165.2166 F       1  UNL1       -0.1658
     27 N         144.2447  141.6458  159.2979 N.3     1  UNL1       -0.2975
     28 H         144.2085  140.6675  159.0116 H       1  UNL1        0.1232
     29 C         143.9295  140.4096  161.5612 C.3     1  UNL1        0.1591
     30 C         143.9448  140.4215  163.0610 C.3     1  UNL1        0.1729
     31 O         144.2906  141.6816  163.7975 O.3     1  UNL1       -0.3511
     32 C         144.6212  142.9299  163.0342 C.3     1  UNL1        0.1437
     33 C         144.6059  142.9180  161.5343 C.3     1  UNL1        0.0503
     34 C         144.2600  141.6578  160.7978 C.3     1  UNL1        0.0865
     35 C         143.9740  137.8173  161.3930 C.3     1  UNL1        0.1742
     36 O         143.5836  139.1495  160.8246 O.3     1  UNL1       -0.3496
     37 C         138.9534  146.6065  154.9297 C.3     1  UNL1        0.0899
     38 C         138.8573  147.8281  155.7947 C.3     1  UNL1        0.0359
     39 C         138.9791  149.1921  155.1824 C.ar    1  UNL1       -0.0217
     40 C         139.6316  149.3569  153.8419 C.ar    1  UNL1       -0.0043
     41 C         139.7535  150.7208  153.2297 C.ar    1  UNL1       -0.0003
     42 C         139.2228  151.9200  153.9580 C.ar    1  UNL1       -0.0000
     43 C         138.5702  151.7552  155.2985 C.ar    1  UNL1       -0.0003
     44 C         138.4484  150.3913  155.9107 C.ar    1  UNL1       -0.0043
@<TRIPOS>BOND
     1    35    36    1
     2    36    29    1
     3    29    30    1
     4    30    31    1
     5    31    32    1
     6    32    33    1
     7    33    34    1
     8    34    27    1
     9     1    27    1
    10     1     2    1
    11     3     2    1
    12     3     4    1
    13     4     5    1
    14     5     6   am
    15     6     7    2
    16     6    37    1
    17    37    38    1
    18    38    39    1
    19    39    40   ar
    20    40    41   ar
    21    41    42   ar
    22    42    43   ar
    23    43    44   ar
    24     5     8    1
    25     8     9    1
    26     9    11    1
    27    11    12    2
    28    11    13   am
    29    13    14    1
    30    14    15    1
    31    15    16    1
    32    16    17   ar
    33    17    18   ar
    34    18    19   ar
    35    19    23    1
    36    23    24    1
    37    23    25    1
    38    23    26    1
    39    19    20   ar
    40    20    21   ar
    41    21    22    1
    42     9    10    1
    43    34    29    1
    44    10     1    1
    45     9     3    1
    46    22    13    1
    47    44    39   ar
    48    21    16   ar
    49    27    28    1
