@<TRIPOS>MOLECULE
*****
 29 33 0 0 0
SMALL
GASTEIGER

@<TRIPOS>ATOM
      1 C         143.4975  143.1074  164.7887 C.ar    1  UNL1        0.1384
      2 C         144.4585  142.5516  163.7800 C.ar    1  UNL1        0.0400
      3 C         144.2391  142.8024  162.3175 C.ar    1  UNL1        0.0397
      4 C         143.0587  143.6090  161.8636 C.ar    1  UNL1        0.1344
      5 C         142.0976  144.1649  162.8723 C.ar    1  UNL1        0.0149
      6 C         142.3171  143.9140  164.3349 C.ar    1  UNL1        0.0356
      7 C         140.9172  144.9715  162.4185 C.3     1  UNL1        0.0331
      8 C         140.6978  145.2223  160.9559 C.3     1  UNL1        0.0449
      9 C         141.6589  144.6665  159.9472 C.3     1  UNL1        0.1361
     10 C         140.4785  145.4731  159.4934 C.3     1  UNL1        0.0574
     11 C         140.2591  145.7239  158.0309 C.3     1  UNL1        0.0756
     12 N         141.2201  145.1680  157.0222 N.3     1  UNL1       -0.2737
     13 C         142.4005  144.3614  157.4761 C.3     1  UNL1        0.0756
     14 C         142.6199  144.1106  158.9385 C.3     1  UNL1        0.0574
     15 O         142.8393  143.8598  160.4011 O.3     1  UNL1       -0.4828
     16 C         141.0007  145.4189  155.5597 C.3     1  UNL1        0.0575
     17 C         141.4297  144.7425  154.2914 C.3     1  UNL1        0.0160
     18 C         140.6904  145.7736  153.4914 C.3     1  UNL1        0.0028
     19 C         140.2614  146.4500  154.7596 C.3     1  UNL1        0.0160
     20 O         143.7168  142.8566  166.2512 O.3     1  UNL1       -0.4755
     21 C         143.0108  141.7214  166.9316 C.3     1  UNL1        0.2054
     22 O         140.6148  142.1289  172.1215 O.2     1  UNL1       -0.1730
     23 S         140.6109  142.4771  170.6625 S.O2    1  UNL1       -0.0100
     24 O         139.3814  143.2114  171.1088 O.2     1  UNL1       -0.1730
     25 C         140.1801  143.0804  169.3585 C.3     1  UNL1        0.1509
     26 C         140.9801  142.8285  168.1149 C.3     1  UNL1        0.0291
     27 C         142.2109  141.9733  168.1753 C.3     1  UNL1        0.0472
     28 C         142.6418  141.3700  169.4792 C.3     1  UNL1        0.0291
     29 C         141.8419  141.6219  170.7228 C.3     1  UNL1        0.1509
@<TRIPOS>BOND
     1    22    23    2
     2    23    24    2
     3    23    25    1
     4    25    26    1
     5    26    27    1
     6    27    21    1
     7    21    20    1
     8    20     1    1
     9     1     2   ar
    10     2     3   ar
    11     3     4   ar
    12     4     5   ar
    13     5     6   ar
    14     5     7    1
    15     7     8    1
    16     8     9    1
    17     9    10    1
    18    10    11    1
    19    11    12    1
    20    12    16    1
    21    16    17    1
    22    17    18    1
    23    18    19    1
    24    12    13    1
    25    13    14    1
    26     9    15    1
    27    27    28    1
    28    28    29    1
    29    29    23    1
    30     6     1   ar
    31    14     9    1
    32    15     4    1
    33    19    16    1
@<TRIPOS>MOLECULE
*****
 29 33 0 0 0
SMALL
GASTEIGER

@<TRIPOS>ATOM
      1 C         139.0716  139.8527  166.5021 C.ar    1  UNL1        0.1384
      2 C         138.5454  139.0797  165.3292 C.ar    1  UNL1        0.0400
      3 C         138.5812  139.6829  163.9564 C.ar    1  UNL1        0.0397
      4 C         139.1432  141.0593  163.7563 C.ar    1  UNL1        0.1344
      5 C         139.6694  141.8323  164.9292 C.ar    1  UNL1        0.0149
      6 C         139.6335  141.2289  166.3021 C.ar    1  UNL1        0.0356
      7 C         140.2313  143.2085  164.7293 C.3     1  UNL1        0.0331
      8 C         140.2672  143.8119  163.3563 C.3     1  UNL1        0.0449
      9 C         139.7411  143.0388  162.1835 C.3     1  UNL1        0.1361
     10 C         140.3030  144.4151  161.9835 C.3     1  UNL1        0.0574
     11 C         140.3389  145.0184  160.6107 C.3     1  UNL1        0.0756
     12 N         139.8127  144.2454  159.4378 N.3     1  UNL1       -0.2737
     13 C         139.2508  142.8691  159.6378 C.3     1  UNL1        0.0756
     14 C         139.2149  142.2658  161.0106 C.3     1  UNL1        0.0574
     15 O         139.1791  141.6625  162.3835 O.3     1  UNL1       -0.4828
     16 C         139.8486  144.8487  158.0649 C.3     1  UNL1        0.0575
     17 C         140.1793  146.2022  157.5094 C.3     1  UNL1        0.0160
     18 C         139.8993  145.7018  156.1233 C.3     1  UNL1        0.0028
     19 C         139.5685  144.3483  156.6788 C.3     1  UNL1        0.0160
     20 O         139.0357  139.2494  167.8749 O.3     1  UNL1       -0.4755
     21 C         139.0506  140.1364  169.0846 C.3     1  UNL1        0.2054
     22 O         144.2472  142.3279  170.1015 O.2     1  UNL1       -0.1730
     23 S         142.7545  142.4754  170.1141 S.O2    1  UNL1       -0.0100
     24 O         143.1534  143.8174  170.6525 O.2     1  UNL1       -0.1730
     25 C         141.4004  143.0889  170.3137 C.3     1  UNL1        0.1509
     26 C         140.1657  142.3092  169.9705 C.3     1  UNL1        0.0291
     27 C         140.2852  140.9160  169.4277 C.3     1  UNL1        0.0472
     28 C         141.6394  140.3025  169.2281 C.3     1  UNL1        0.0291
     29 C         142.8740  141.0821  169.5713 C.3     1  UNL1        0.1509
@<TRIPOS>BOND
     1    22    23    2
     2    23    24    2
     3    23    25    1
     4    25    26    1
     5    26    27    1
     6    27    21    1
     7    21    20    1
     8    20     1    1
     9     1     2   ar
    10     2     3   ar
    11     3     4   ar
    12     4     5   ar
    13     5     6   ar
    14     5     7    1
    15     7     8    1
    16     8     9    1
    17     9    10    1
    18    10    11    1
    19    11    12    1
    20    12    16    1
    21    16    17    1
    22    17    18    1
    23    18    19    1
    24    12    13    1
    25    13    14    1
    26     9    15    1
    27    27    28    1
    28    28    29    1
    29    29    23    1
    30     6     1   ar
    31    14     9    1
    32    15     4    1
    33    19    16    1
@<TRIPOS>MOLECULE
*****
 29 33 0 0 0
SMALL
GASTEIGER

@<TRIPOS>ATOM
      1 C         142.2012  138.4755  156.4581 C.ar    1  UNL1        0.1384
      2 C         140.7280  138.7566  156.4825 C.ar    1  UNL1        0.0400
      3 C         139.9836  138.7442  157.7847 C.ar    1  UNL1        0.0397
      4 C         140.7124  138.4507  159.0625 C.ar    1  UNL1        0.1344
      5 C         142.1856  138.1696  159.0381 C.ar    1  UNL1        0.0149
      6 C         142.9300  138.1820  157.7358 C.ar    1  UNL1        0.0356
      7 C         142.9145  137.8761  160.3158 C.3     1  UNL1        0.0331
      8 C         142.1700  137.8638  161.6181 C.3     1  UNL1        0.0449
      9 C         140.6968  138.1449  161.6425 C.3     1  UNL1        0.1361
     10 C         141.4256  137.8514  162.9202 C.3     1  UNL1        0.0574
     11 C         140.6812  137.8390  164.2224 C.3     1  UNL1        0.0756
     12 N         139.2080  138.1201  164.2468 N.3     1  UNL1       -0.2737
     13 C         138.4792  138.4136  162.9691 C.3     1  UNL1        0.0756
     14 C         139.2236  138.4260  161.6669 C.3     1  UNL1        0.0574
     15 O         139.9680  138.4383  160.3647 O.3     1  UNL1       -0.4828
     16 C         138.4636  138.1077  165.5491 C.3     1  UNL1        0.0575
     17 C         137.7737  137.0562  166.3665 C.3     1  UNL1        0.0160
     18 C         137.4109  138.0903  167.3907 C.3     1  UNL1        0.0028
     19 C         138.1008  139.1419  166.5732 C.3     1  UNL1        0.0160
     20 O         142.9456  138.4878  155.1559 O.3     1  UNL1       -0.4755
     21 C         142.8698  137.3043  154.2374 C.3     1  UNL1        0.2054
     22 O         141.4894  132.0276  155.9957 O.2     1  UNL1       -0.1730
     23 S         142.4746  133.1572  155.9389 S.O2    1  UNL1       -0.0100
     24 O         143.2579  132.1690  156.7511 O.2     1  UNL1       -0.1730
     25 C         143.7319  133.9437  156.1642 C.3     1  UNL1        0.1509
     26 C         143.8636  135.3261  155.5970 C.3     1  UNL1        0.0291
     27 C         142.7381  135.9220  154.8046 C.3     1  UNL1        0.0472
     28 C         141.4808  135.1356  154.5793 C.3     1  UNL1        0.0291
     29 C         141.3490  133.7532  155.1464 C.3     1  UNL1        0.1509
@<TRIPOS>BOND
     1    22    23    2
     2    23    24    2
     3    23    25    1
     4    25    26    1
     5    26    27    1
     6    27    21    1
     7    21    20    1
     8    20     1    1
     9     1     2   ar
    10     2     3   ar
    11     3     4   ar
    12     4     5   ar
    13     5     6   ar
    14     5     7    1
    15     7     8    1
    16     8     9    1
    17     9    10    1
    18    10    11    1
    19    11    12    1
    20    12    16    1
    21    16    17    1
    22    17    18    1
    23    18    19    1
    24    12    13    1
    25    13    14    1
    26     9    15    1
    27    27    28    1
    28    28    29    1
    29    29    23    1
    30     6     1   ar
    31    14     9    1
    32    15     4    1
    33    19    16    1
@<TRIPOS>MOLECULE
*****
 29 33 0 0 0
SMALL
GASTEIGER

@<TRIPOS>ATOM
      1 C         142.7898  138.3357  159.2876 C.ar    1  UNL1        0.1384
      2 C         141.3134  138.4271  159.5363 C.ar    1  UNL1        0.0400
      3 C         140.8003  138.6692  160.9248 C.ar    1  UNL1        0.0397
      4 C         141.7636  138.8200  162.0647 C.ar    1  UNL1        0.1344
      5 C         143.2400  138.7287  161.8160 C.ar    1  UNL1        0.0149
      6 C         143.7531  138.4865  160.4274 C.ar    1  UNL1        0.0356
      7 C         144.2033  138.8795  162.9558 C.3     1  UNL1        0.0331
      8 C         143.6902  139.1216  164.3445 C.3     1  UNL1        0.0449
      9 C         142.2138  139.2130  164.5932 C.3     1  UNL1        0.1361
     10 C         143.1771  139.3638  165.7330 C.3     1  UNL1        0.0574
     11 C         142.6640  139.6059  167.1215 C.3     1  UNL1        0.0756
     12 N         141.1876  139.6973  167.3702 N.3     1  UNL1       -0.2737
     13 C         140.2243  139.5465  166.2304 C.3     1  UNL1        0.0756
     14 C         140.7374  139.3043  164.8419 C.3     1  UNL1        0.0574
     15 O         141.2505  139.0622  163.4532 O.3     1  UNL1       -0.4828
     16 C         140.6745  139.9395  168.7588 C.3     1  UNL1        0.0575
     17 C         141.2767  139.9095  170.1323 C.3     1  UNL1        0.0160
     18 C         139.9489  140.2819  170.7225 C.3     1  UNL1        0.0028
     19 C         139.3468  140.3119  169.3490 C.3     1  UNL1        0.0160
     20 O         143.3029  138.0936  157.8991 O.3     1  UNL1       -0.4755
     21 C         142.3832  137.5569  156.8425 C.3     1  UNL1        0.2054
     22 O         142.9093  131.8639  156.4510 O.2     1  UNL1       -0.1730
     23 S         142.2577  133.1380  156.0016 S.O2    1  UNL1       -0.0100
     24 O         141.5421  132.1554  155.1227 O.2     1  UNL1       -0.1730
     25 C         141.3576  134.0709  155.2470 C.3     1  UNL1        0.1509
     26 C         141.3994  135.5439  155.5273 C.3     1  UNL1        0.0291
     27 C         142.3414  136.0840  156.5622 C.3     1  UNL1        0.0472
     28 C         143.2415  135.1511  157.3168 C.3     1  UNL1        0.0291
     29 C         143.1997  133.6781  157.0365 C.3     1  UNL1        0.1509
@<TRIPOS>BOND
     1    22    23    2
     2    23    24    2
     3    23    25    1
     4    25    26    1
     5    26    27    1
     6    27    21    1
     7    21    20    1
     8    20     1    1
     9     1     2   ar
    10     2     3   ar
    11     3     4   ar
    12     4     5   ar
    13     5     6   ar
    14     5     7    1
    15     7     8    1
    16     8     9    1
    17     9    10    1
    18    10    11    1
    19    11    12    1
    20    12    16    1
    21    16    17    1
    22    17    18    1
    23    18    19    1
    24    12    13    1
    25    13    14    1
    26     9    15    1
    27    27    28    1
    28    28    29    1
    29    29    23    1
    30     6     1   ar
    31    14     9    1
    32    15     4    1
    33    19    16    1
@<TRIPOS>MOLECULE
*****
 29 33 0 0 0
SMALL
GASTEIGER

@<TRIPOS>ATOM
      1 C         138.5949  140.4077  164.4564 C.ar    1  UNL1        0.1384
      2 C         138.1488  139.6770  163.2247 C.ar    1  UNL1        0.0400
      3 C         138.3047  140.3152  161.8763 C.ar    1  UNL1        0.0397
      4 C         138.9067  141.6842  161.7595 C.ar    1  UNL1        0.1344
      5 C         139.3527  142.4149  162.9912 C.ar    1  UNL1        0.0149
      6 C         139.1968  141.7766  164.3397 C.ar    1  UNL1        0.0356
      7 C         139.9547  143.7838  162.8744 C.3     1  UNL1        0.0331
      8 C         140.1106  144.4221  161.5259 C.3     1  UNL1        0.0449
      9 C         139.6645  143.6913  160.2942 C.3     1  UNL1        0.1361
     10 C         140.2665  145.0603  160.1774 C.3     1  UNL1        0.0574
     11 C         140.4224  145.6984  158.8290 C.3     1  UNL1        0.0756
     12 N         139.9763  144.9677  157.5973 N.3     1  UNL1       -0.2737
     13 C         139.3744  143.5988  157.7141 C.3     1  UNL1        0.0756
     14 C         139.2185  142.9606  159.0625 C.3     1  UNL1        0.0574
     15 O         139.0626  142.3223  160.4110 O.3     1  UNL1       -0.4828
     16 C         140.1322  145.6060  156.2488 C.3     1  UNL1        0.0575
     17 C         139.3912  146.6615  155.4828 C.3     1  UNL1        0.0160
     18 C         140.3528  146.5085  154.3418 C.3     1  UNL1        0.0028
     19 C         141.0938  145.4530  155.1077 C.3     1  UNL1        0.0160
     20 O         138.4390  139.7695  165.8049 O.3     1  UNL1       -0.4755
     21 C         139.6273  139.6270  166.7091 C.3     1  UNL1        0.2054
     22 O         139.9747  142.6656  171.5555 O.2     1  UNL1       -0.1730
     23 S         140.2467  142.5360  170.0861 S.O2    1  UNL1       -0.0100
     24 O         140.8352  143.8920  170.3413 O.2     1  UNL1       -0.1730
     25 C         140.7232  142.8773  168.7054 C.3     1  UNL1        0.1509
     26 C         140.5167  141.9075  167.5797 C.3     1  UNL1        0.0291
     27 C         139.8338  140.5967  167.8348 C.3     1  UNL1        0.0472
     28 C         139.3573  140.2554  169.2156 C.3     1  UNL1        0.0291
     29 C         139.5638  141.2250  170.3412 C.3     1  UNL1        0.1509
@<TRIPOS>BOND
     1    22    23    2
     2    23    24    2
     3    23    25    1
     4    25    26    1
     5    26    27    1
     6    27    21    1
     7    21    20    1
     8    20     1    1
     9     1     2   ar
    10     2     3   ar
    11     3     4   ar
    12     4     5   ar
    13     5     6   ar
    14     5     7    1
    15     7     8    1
    16     8     9    1
    17     9    10    1
    18    10    11    1
    19    11    12    1
    20    12    16    1
    21    16    17    1
    22    17    18    1
    23    18    19    1
    24    12    13    1
    25    13    14    1
    26     9    15    1
    27    27    28    1
    28    28    29    1
    29    29    23    1
    30     6     1   ar
    31    14     9    1
    32    15     4    1
    33    19    16    1
@<TRIPOS>MOLECULE
*****
 29 33 0 0 0
SMALL
GASTEIGER

@<TRIPOS>ATOM
      1 C         139.9813  143.9163  164.5298 C.ar    1  UNL1        0.1384
      2 C         138.8857  144.7736  163.9687 C.ar    1  UNL1        0.0400
      3 C         138.9105  145.1710  162.5225 C.ar    1  UNL1        0.0397
      4 C         140.0309  144.7113  161.6374 C.ar    1  UNL1        0.1344
      5 C         141.1265  143.8541  162.1985 C.ar    1  UNL1        0.0149
      6 C         141.1017  143.4566  163.6448 C.ar    1  UNL1        0.0356
      7 C         142.2469  143.3944  161.3135 C.3     1  UNL1        0.0331
      8 C         142.2718  143.7919  159.8673 C.3     1  UNL1        0.0449
      9 C         141.1762  144.6491  159.3062 C.3     1  UNL1        0.1361
     10 C         142.2966  144.1894  158.4212 C.3     1  UNL1        0.0574
     11 C         142.3214  144.5868  156.9751 C.3     1  UNL1        0.0756
     12 N         141.2258  145.4440  156.4139 N.3     1  UNL1       -0.2737
     13 C         140.1054  145.9038  157.2989 C.3     1  UNL1        0.0756
     14 C         140.0806  145.5063  158.7451 C.3     1  UNL1        0.0574
     15 O         140.0557  145.1088  160.1913 O.3     1  UNL1       -0.4828
     16 C         141.2506  145.8415  154.9677 C.3     1  UNL1        0.0575
     17 C         140.5320  146.8619  154.1356 C.3     1  UNL1        0.0160
     18 C         141.2858  146.4036  152.9225 C.3     1  UNL1        0.0028
     19 C         142.0045  145.3832  153.7546 C.3     1  UNL1        0.0160
     20 O         139.9564  143.5189  165.9759 O.3     1  UNL1       -0.4755
     21 C         141.0109  142.6009  166.5196 C.3     1  UNL1        0.2054
     22 O         140.5989  142.2253  172.2232 O.2     1  UNL1       -0.1730
     23 S         141.1793  141.7308  170.9315 S.O2    1  UNL1       -0.0100
     24 O         141.8457  140.7918  171.8929 O.2     1  UNL1       -0.1730
     25 C         141.9912  140.9102  169.9737 C.3     1  UNL1        0.1509
     26 C         141.9350  141.2002  168.5030 C.3     1  UNL1        0.0291
     27 C         141.0670  142.3109  167.9902 C.3     1  UNL1        0.0472
     28 C         140.2552  143.1315  168.9481 C.3     1  UNL1        0.0291
     29 C         140.3113  142.8415  170.4187 C.3     1  UNL1        0.1509
@<TRIPOS>BOND
     1    22    23    2
     2    23    24    2
     3    23    25    1
     4    25    26    1
     5    26    27    1
     6    27    21    1
     7    21    20    1
     8    20     1    1
     9     1     2   ar
    10     2     3   ar
    11     3     4   ar
    12     4     5   ar
    13     5     6   ar
    14     5     7    1
    15     7     8    1
    16     8     9    1
    17     9    10    1
    18    10    11    1
    19    11    12    1
    20    12    16    1
    21    16    17    1
    22    17    18    1
    23    18    19    1
    24    12    13    1
    25    13    14    1
    26     9    15    1
    27    27    28    1
    28    28    29    1
    29    29    23    1
    30     6     1   ar
    31    14     9    1
    32    15     4    1
    33    19    16    1
@<TRIPOS>MOLECULE
*****
 29 33 0 0 0
SMALL
GASTEIGER

@<TRIPOS>ATOM
      1 C         140.1204  141.6269  164.0633 C.ar    1  UNL1        0.1384
      2 C         141.5202  141.0879  164.0693 C.ar    1  UNL1        0.0400
      3 C         142.0086  140.2562  162.9206 C.ar    1  UNL1        0.0397
      4 C         141.0972  139.9634  161.7657 C.ar    1  UNL1        0.1344
      5 C         139.6974  140.5024  161.7596 C.ar    1  UNL1        0.0149
      6 C         139.2090  141.3342  162.9085 C.ar    1  UNL1        0.0356
      7 C         138.7860  140.2097  160.6048 C.3     1  UNL1        0.0331
      8 C         139.2744  139.3779  159.4560 C.3     1  UNL1        0.0449
      9 C         140.6742  138.8389  159.4621 C.3     1  UNL1        0.1361
     10 C         139.7628  138.5462  158.3073 C.3     1  UNL1        0.0574
     11 C         140.2512  137.7145  157.1585 C.3     1  UNL1        0.0756
     12 N         141.6510  137.1755  157.1646 N.3     1  UNL1       -0.2737
     13 C         142.5624  137.4682  158.3194 C.3     1  UNL1        0.0756
     14 C         142.0740  138.2999  159.4681 C.3     1  UNL1        0.0574
     15 O         141.5856  139.1317  160.6169 O.3     1  UNL1       -0.4828
     16 C         142.1394  136.3437  156.0157 C.3     1  UNL1        0.0575
     17 C         142.4046  134.8831  155.8010 C.3     1  UNL1        0.0160
     18 C         142.8300  135.1676  154.3910 C.3     1  UNL1        0.0028
     19 C         142.5648  136.6282  154.6057 C.3     1  UNL1        0.0160
     20 O         139.6320  142.4586  165.2120 O.3     1  UNL1       -0.4755
     21 C         140.5760  142.8478  166.3109 C.3     1  UNL1        0.2054
     22 O         139.7734  139.6971  171.0300 O.2     1  UNL1       -0.1730
     23 S         140.1637  140.9973  170.3920 S.O2    1  UNL1       -0.0100
     24 O         140.3435  141.3525  171.8382 O.2     1  UNL1       -0.1730
     25 C         140.6164  142.4209  170.2563 C.3     1  UNL1        0.1509
     26 C         140.7539  143.0377  168.8958 C.3     1  UNL1        0.0291
     27 C         140.4386  142.2310  167.6712 C.3     1  UNL1        0.0472
     28 C         139.9858  140.8074  167.8070 C.3     1  UNL1        0.0291
     29 C         139.8484  140.1905  169.1673 C.3     1  UNL1        0.1509
@<TRIPOS>BOND
     1    22    23    2
     2    23    24    2
     3    23    25    1
     4    25    26    1
     5    26    27    1
     6    27    21    1
     7    21    20    1
     8    20     1    1
     9     1     2   ar
    10     2     3   ar
    11     3     4   ar
    12     4     5   ar
    13     5     6   ar
    14     5     7    1
    15     7     8    1
    16     8     9    1
    17     9    10    1
    18    10    11    1
    19    11    12    1
    20    12    16    1
    21    16    17    1
    22    17    18    1
    23    18    19    1
    24    12    13    1
    25    13    14    1
    26     9    15    1
    27    27    28    1
    28    28    29    1
    29    29    23    1
    30     6     1   ar
    31    14     9    1
    32    15     4    1
    33    19    16    1
@<TRIPOS>MOLECULE
*****
 29 33 0 0 0
SMALL
GASTEIGER

@<TRIPOS>ATOM
      1 C         140.4579  138.5675  158.9683 C.ar    1  UNL1        0.1384
      2 C         141.7821  139.0390  159.4918 C.ar    1  UNL1        0.0400
      3 C         141.9516  139.3249  160.9545 C.ar    1  UNL1        0.0397
      4 C         140.7968  139.1393  161.8938 C.ar    1  UNL1        0.1344
      5 C         139.4725  138.6678  161.3702 C.ar    1  UNL1        0.0149
      6 C         139.3031  138.3819  159.9075 C.ar    1  UNL1        0.0356
      7 C         138.3178  138.4822  162.3094 C.3     1  UNL1        0.0331
      8 C         138.4872  138.7681  163.7721 C.3     1  UNL1        0.0449
      9 C         139.8115  139.2396  164.2957 C.3     1  UNL1        0.1361
     10 C         138.6567  139.0540  165.2348 C.3     1  UNL1        0.0574
     11 C         138.8262  139.3399  166.6975 C.3     1  UNL1        0.0756
     12 N         140.1504  139.8115  167.2210 N.3     1  UNL1       -0.2737
     13 C         141.3052  139.9971  166.2819 C.3     1  UNL1        0.0756
     14 C         141.1357  139.7111  164.8192 C.3     1  UNL1        0.0574
     15 O         140.9663  139.4252  163.3564 O.3     1  UNL1       -0.4828
     16 C         140.3199  140.0974  168.6838 C.3     1  UNL1        0.0575
     17 C         139.6133  140.9635  169.6841 C.3     1  UNL1        0.0160
     18 C         140.5595  140.5017  170.7524 C.3     1  UNL1        0.0028
     19 C         141.2661  139.6355  169.7521 C.3     1  UNL1        0.0160
     20 O         140.2884  138.2816  157.5056 O.3     1  UNL1       -0.4755
     21 C         141.4810  137.9276  156.6675 C.3     1  UNL1        0.2054
     22 O         143.5693  132.5923  156.5441 O.2     1  UNL1       -0.1730
     23 S         142.5902  133.6115  156.0417 S.O2    1  UNL1       -0.0100
     24 O         142.1774  132.4266  155.2198 O.2     1  UNL1       -0.1730
     25 C         141.4677  134.2193  155.2539 C.3     1  UNL1        0.1509
     26 C         141.0979  135.6580  155.4625 C.3     1  UNL1        0.0291
     27 C         141.8507  136.4889  156.4589 C.3     1  UNL1        0.0472
     28 C         142.9733  135.8812  157.2467 C.3     1  UNL1        0.0291
     29 C         143.3430  134.4426  157.0381 C.3     1  UNL1        0.1509
@<TRIPOS>BOND
     1    22    23    2
     2    23    24    2
     3    23    25    1
     4    25    26    1
     5    26    27    1
     6    27    21    1
     7    21    20    1
     8    20     1    1
     9     1     2   ar
    10     2     3   ar
    11     3     4   ar
    12     4     5   ar
    13     5     6   ar
    14     5     7    1
    15     7     8    1
    16     8     9    1
    17     9    10    1
    18    10    11    1
    19    11    12    1
    20    12    16    1
    21    16    17    1
    22    17    18    1
    23    18    19    1
    24    12    13    1
    25    13    14    1
    26     9    15    1
    27    27    28    1
    28    28    29    1
    29    29    23    1
    30     6     1   ar
    31    14     9    1
    32    15     4    1
    33    19    16    1
@<TRIPOS>MOLECULE
*****
 29 33 0 0 0
SMALL
GASTEIGER

@<TRIPOS>ATOM
      1 C         139.5023  139.0841  159.1013 C.ar    1  UNL1        0.1384
      2 C         140.0520  140.4696  159.2698 C.ar    1  UNL1        0.0400
      3 C         140.2130  141.0507  160.6432 C.ar    1  UNL1        0.0397
      4 C         139.8243  140.2464  161.8483 C.ar    1  UNL1        0.1344
      5 C         139.2745  138.8609  161.6798 C.ar    1  UNL1        0.0149
      6 C         139.1136  138.2798  160.3063 C.ar    1  UNL1        0.0356
      7 C         138.8858  138.0566  162.8847 C.3     1  UNL1        0.0331
      8 C         139.0468  138.6377  164.2582 C.3     1  UNL1        0.0449
      9 C         139.5965  140.0232  164.4267 C.3     1  UNL1        0.1361
     10 C         139.2077  139.2189  165.6317 C.3     1  UNL1        0.0574
     11 C         139.3687  139.8000  167.0051 C.3     1  UNL1        0.0756
     12 N         139.9184  141.1854  167.1736 N.3     1  UNL1       -0.2737
     13 C         140.3071  141.9897  165.9686 C.3     1  UNL1        0.0756
     14 C         140.1462  141.4086  164.5952 C.3     1  UNL1        0.0574
     15 O         139.9852  140.8275  163.2217 O.3     1  UNL1       -0.4828
     16 C         140.0794  141.7665  168.5471 C.3     1  UNL1        0.0575
     17 C         139.8572  141.2657  169.9434 C.3     1  UNL1        0.0160
     18 C         140.3070  142.5884  170.4894 C.3     1  UNL1        0.0028
     19 C         140.5291  143.0893  169.0931 C.3     1  UNL1        0.0160
     20 O         139.3414  138.5030  157.7279 O.3     1  UNL1       -0.4755
     21 C         140.5085  138.4695  156.7861 C.3     1  UNL1        0.2054
     22 O         142.5341  133.3631  155.1546 O.2     1  UNL1       -0.1730
     23 S         142.6571  134.5940  156.0028 S.O2    1  UNL1       -0.0100
     24 O         143.8775  133.8458  156.4511 O.2     1  UNL1       -0.1730
     25 C         143.2040  135.5651  157.0068 C.3     1  UNL1        0.1509
     26 C         142.4877  136.8570  157.2679 C.3     1  UNL1        0.0291
     27 C         141.2247  137.1777  156.5250 C.3     1  UNL1        0.0472
     28 C         140.6779  136.2066  155.5211 C.3     1  UNL1        0.0291
     29 C         141.3941  134.9148  155.2600 C.3     1  UNL1        0.1509
@<TRIPOS>BOND
     1    22    23    2
     2    23    24    2
     3    23    25    1
     4    25    26    1
     5    26    27    1
     6    27    21    1
     7    21    20    1
     8    20     1    1
     9     1     2   ar
    10     2     3   ar
    11     3     4   ar
    12     4     5   ar
    13     5     6   ar
    14     5     7    1
    15     7     8    1
    16     8     9    1
    17     9    10    1
    18    10    11    1
    19    11    12    1
    20    12    16    1
    21    16    17    1
    22    17    18    1
    23    18    19    1
    24    12    13    1
    25    13    14    1
    26     9    15    1
    27    27    28    1
    28    28    29    1
    29    29    23    1
    30     6     1   ar
    31    14     9    1
    32    15     4    1
    33    19    16    1
