@<TRIPOS>MOLECULE
*****
 26 29 0 0 0
SMALL
GASTEIGER

@<TRIPOS>ATOM
      1 C         137.4073  139.8069  161.0835 C.3     1  UNL1        0.1366
      2 N         137.9502  140.7763  162.0913 N.ar    1  UNL1       -0.2630
      3 C         138.0638  142.2614  161.9139 C.ar    1  UNL1        0.3331
      4 O         137.6544  143.0380  160.6976 O.2     1  UNL1       -0.2462
      5 N         138.6587  142.8336  163.1664 N.ar    1  UNL1       -0.2694
      6 C         138.9127  141.7021  164.1178 C.ar    1  UNL1        0.0986
      7 C         139.4862  141.6654  165.5034 C.ar    1  UNL1        0.0224
      8 C         139.6218  140.3571  166.2244 C.ar    1  UNL1        0.0267
      9 C         139.1839  139.0856  165.5600 C.ar    1  UNL1        0.1011
     10 N         138.6105  139.1223  164.1744 N.ar    1  UNL1       -0.2251
     11 C         138.4749  140.4306  163.4533 C.ar    1  UNL1        0.1633
     12 C         140.1952  140.3203  167.6100 C.ar    1  UNL1        0.0309
     13 C         139.4169  140.1626  168.8825 C.ar    1  UNL1        0.0069
     14 C         140.3883  140.1796  170.0253 C.ar    1  UNL1        0.0081
     15 C         141.7672  140.3478  169.4591 C.ar    1  UNL1        0.0731
     16 S         141.6478  140.4348  167.9664 S.2     1  UNL1       -0.0858
     17 C         143.0416  140.4169  170.2472 C.3     1  UNL1        0.3468
     18 F         143.9538  141.5980  170.0959 F       1  UNL1       -0.1927
     19 F         143.4037  139.3050  171.1866 F       1  UNL1       -0.1927
     20 C         138.9486  144.2829  163.4225 C.3     1  UNL1        0.1956
     21 C         140.1489  144.9296  162.7970 C.2     1  UNL1        0.2489
     22 O         139.9816  145.8328  161.6112 O.2     1  UNL1       -0.2728
     23 N         141.5164  144.6730  163.3574 N.am    1  UNL1       -0.2778
     24 C         142.9050  145.1244  163.0141 C.3     1  UNL1        0.0952
     25 C         143.4504  144.3103  164.1498 C.3     1  UNL1        0.0430
     26 C         142.0617  143.8589  164.4931 C.3     1  UNL1        0.0952
@<TRIPOS>BOND
     1     1     2    1
     2     2     3   ar
     3     3     4    2
     4     3     5   ar
     5     5    20    1
     6    20    21    1
     7    21    22    2
     8    21    23   am
     9    23    24    1
    10    24    25    1
    11    25    26    1
    12     5     6   ar
    13     6     7   ar
    14     7     8   ar
    15     8    12    1
    16    12    13   ar
    17    13    14   ar
    18    14    15   ar
    19    15    17    1
    20    17    18    1
    21    17    19    1
    22    15    16   ar
    23     8     9   ar
    24     9    10   ar
    25    10    11   ar
    26    11     2   ar
    27    26    23    1
    28    11     6   ar
    29    16    12   ar
@<TRIPOS>MOLECULE
*****
 26 29 0 0 0
SMALL
GASTEIGER

@<TRIPOS>ATOM
      1 C         142.6442  137.5933  160.9045 C.3     1  UNL1        0.1366
      2 N         141.7321  138.2322  161.9094 N.ar    1  UNL1       -0.2630
      3 C         140.2688  138.5048  161.7241 C.ar    1  UNL1        0.3331
      4 O         139.4606  138.1863  160.5012 O.2     1  UNL1       -0.2462
      5 N         139.7556  139.1517  162.9763 N.ar    1  UNL1       -0.2694
      6 C         140.9017  139.2790  163.9356 C.ar    1  UNL1        0.0986
      7 C         140.9908  139.8389  165.3243 C.ar    1  UNL1        0.0224
      8 C         142.3015  139.8305  166.0536 C.ar    1  UNL1        0.0267
      9 C         143.5231  139.2622  165.3942 C.ar    1  UNL1        0.1011
     10 N         143.4340  138.7023  164.0055 N.ar    1  UNL1       -0.2251
     11 C         142.1233  138.7107  163.2762 C.ar    1  UNL1        0.1633
     12 C         142.3907  140.3904  167.4423 C.ar    1  UNL1        0.0309
     13 C         142.6440  139.6052  168.6950 C.ar    1  UNL1        0.0069
     14 C         142.6521  140.5634  169.8491 C.ar    1  UNL1        0.0081
     15 C         142.4037  141.9409  169.3096 C.ar    1  UNL1        0.0731
     16 S         142.2422  141.8339  167.8222 S.2     1  UNL1       -0.0858
     17 C         142.3299  143.2035  170.1160 C.3     1  UNL1        0.3468
     18 F         141.1429  144.1108  169.9818 F       1  UNL1       -0.1927
     19 F         143.4430  143.5588  171.0566 F       1  UNL1       -0.1927
     20 C         138.3440  139.5938  163.2255 C.3     1  UNL1        0.1956
     21 C         137.8439  140.8770  162.6310 C.2     1  UNL1        0.2489
     22 O         137.2190  140.8785  161.2674 O.2     1  UNL1       -0.2728
     23 N         137.9688  142.1587  163.4002 N.am    1  UNL1       -0.2778
     24 C         137.5977  143.5894  163.1446 C.3     1  UNL1        0.0952
     25 C         138.1453  143.9714  164.4880 C.3     1  UNL1        0.0430
     26 C         138.5163  142.5406  164.7435 C.3     1  UNL1        0.0952
@<TRIPOS>BOND
     1     1     2    1
     2     2     3   ar
     3     3     4    2
     4     3     5   ar
     5     5    20    1
     6    20    21    1
     7    21    22    2
     8    21    23   am
     9    23    24    1
    10    24    25    1
    11    25    26    1
    12     5     6   ar
    13     6     7   ar
    14     7     8   ar
    15     8    12    1
    16    12    13   ar
    17    13    14   ar
    18    14    15   ar
    19    15    17    1
    20    17    18    1
    21    17    19    1
    22    15    16   ar
    23     8     9   ar
    24     9    10   ar
    25    10    11   ar
    26    11     2   ar
    27    26    23    1
    28    11     6   ar
    29    16    12   ar
@<TRIPOS>MOLECULE
*****
 26 29 0 0 0
SMALL
GASTEIGER

@<TRIPOS>ATOM
      1 C         144.1028  138.8043  160.5898 C.3     1  UNL1        0.1366
      2 N         143.7317  139.8742  161.5735 N.ar    1  UNL1       -0.2630
      3 C         143.7973  141.3535  161.3338 C.ar    1  UNL1        0.3331
      4 O         144.2456  142.0226  160.0683 O.2     1  UNL1       -0.2462
      5 N         143.3360  142.0461  162.5817 N.ar    1  UNL1       -0.2694
      6 C         142.9852  140.9950  163.5927 C.ar    1  UNL1        0.0986
      7 C         142.4748  141.0867  165.0001 C.ar    1  UNL1        0.0224
      8 C         142.2088  139.8361  165.7844 C.ar    1  UNL1        0.0267
      9 C         142.4534  138.4938  165.1613 C.ar    1  UNL1        0.1011
     10 N         142.9638  138.4020  163.7539 N.ar    1  UNL1       -0.2251
     11 C         143.2298  139.6527  162.9696 C.ar    1  UNL1        0.1633
     12 C         141.6983  139.9278  167.1920 C.ar    1  UNL1        0.0309
     13 C         142.4165  139.4592  168.4226 C.ar    1  UNL1        0.0069
     14 C         141.5420  139.7460  169.6071 C.ar    1  UNL1        0.0081
     15 C         140.2833  140.3920  169.1085 C.ar    1  UNL1        0.0731
     16 S         140.3800  140.5043  167.6159 S.2     1  UNL1       -0.0858
     17 C         139.1305  140.8458  169.9541 C.3     1  UNL1        0.3468
     18 F         137.9867  139.9141  170.2251 F       1  UNL1       -0.1927
     19 F         139.1216  142.2314  170.5287 F       1  UNL1       -0.1927
     20 C         143.2419  143.5296  162.7833 C.3     1  UNL1        0.1956
     21 C         142.0681  144.2877  162.2379 C.2     1  UNL1        0.2489
     22 O         142.1026  144.8153  160.8342 O.2     1  UNL1       -0.2728
     23 N         140.8597  144.5181  163.0962 N.am    1  UNL1       -0.2778
     24 C         139.5402  145.2059  162.9074 C.3     1  UNL1        0.0952
     25 C         139.1508  144.8440  164.3101 C.3     1  UNL1        0.0430
     26 C         140.4703  144.1561  164.4989 C.3     1  UNL1        0.0952
@<TRIPOS>BOND
     1     1     2    1
     2     2     3   ar
     3     3     4    2
     4     3     5   ar
     5     5    20    1
     6    20    21    1
     7    21    22    2
     8    21    23   am
     9    23    24    1
    10    24    25    1
    11    25    26    1
    12     5     6   ar
    13     6     7   ar
    14     7     8   ar
    15     8    12    1
    16    12    13   ar
    17    13    14   ar
    18    14    15   ar
    19    15    17    1
    20    17    18    1
    21    17    19    1
    22    15    16   ar
    23     8     9   ar
    24     9    10   ar
    25    10    11   ar
    26    11     2   ar
    27    26    23    1
    28    11     6   ar
    29    16    12   ar
@<TRIPOS>MOLECULE
*****
 26 29 0 0 0
SMALL
GASTEIGER

@<TRIPOS>ATOM
      1 C         142.1419  138.0156  159.7020 C.3     1  UNL1        0.1366
      2 N         141.2305  138.6830  160.6889 N.ar    1  UNL1       -0.2630
      3 C         139.9282  139.3562  160.3712 C.ar    1  UNL1        0.3331
      4 O         139.3087  139.4801  159.0108 O.2     1  UNL1       -0.2462
      5 N         139.3544  139.8836  161.6528 N.ar    1  UNL1       -0.2694
      6 C         140.3019  139.5364  162.7626 C.ar    1  UNL1        0.0986
      7 C         140.2587  139.8001  164.2385 C.ar    1  UNL1        0.0224
      8 C         141.3750  139.3218  165.1188 C.ar    1  UNL1        0.0267
      9 C         142.5346  138.5797  164.5231 C.ar    1  UNL1        0.1011
     10 N         142.5778  138.3161  163.0472 N.ar    1  UNL1       -0.2251
     11 C         141.4615  138.7944  162.1669 C.ar    1  UNL1        0.1633
     12 C         141.3318  139.5854  166.5949 C.ar    1  UNL1        0.0309
     13 C         142.4839  139.4593  167.5472 C.ar    1  UNL1        0.0069
     14 C         141.9930  139.8174  168.9186 C.ar    1  UNL1        0.0081
     15 C         140.5376  140.1649  168.8139 C.ar    1  UNL1        0.0731
     16 S         140.1289  140.0216  167.3778 S.2     1  UNL1       -0.0858
     17 C         139.6471  140.5825  169.9465 C.3     1  UNL1        0.3468
     18 F         138.1965  140.2009  169.9400 F       1  UNL1       -0.1927
     19 F         140.2073  141.3817  171.0856 F       1  UNL1       -0.1927
     20 C         138.0601  140.6276  161.7989 C.3     1  UNL1        0.1956
     21 C         138.0407  142.1246  161.7042 C.2     1  UNL1        0.2489
     22 O         138.1072  142.7921  160.3626 O.2     1  UNL1       -0.2728
     23 N         137.9547  142.9539  162.9511 N.am    1  UNL1       -0.2778
     24 C         137.9132  144.4240  163.2463 C.3     1  UNL1        0.0952
     25 C         137.8332  144.1268  164.7145 C.3     1  UNL1        0.0430
     26 C         137.8747  142.6568  164.4192 C.3     1  UNL1        0.0952
@<TRIPOS>BOND
     1     1     2    1
     2     2     3   ar
     3     3     4    2
     4     3     5   ar
     5     5    20    1
     6    20    21    1
     7    21    22    2
     8    21    23   am
     9    23    24    1
    10    24    25    1
    11    25    26    1
    12     5     6   ar
    13     6     7   ar
    14     7     8   ar
    15     8    12    1
    16    12    13   ar
    17    13    14   ar
    18    14    15   ar
    19    15    17    1
    20    17    18    1
    21    17    19    1
    22    15    16   ar
    23     8     9   ar
    24     9    10   ar
    25    10    11   ar
    26    11     2   ar
    27    26    23    1
    28    11     6   ar
    29    16    12   ar
@<TRIPOS>MOLECULE
*****
 26 29 0 0 0
SMALL
GASTEIGER

@<TRIPOS>ATOM
      1 C         145.0917  142.5172  160.2137 C.3     1  UNL1        0.1366
      2 N         144.4101  141.5136  161.0959 N.ar    1  UNL1       -0.2630
      3 C         143.8586  140.1882  160.6611 C.ar    1  UNL1        0.3331
      4 O         143.8917  139.6337  159.2677 O.2     1  UNL1       -0.2462
      5 N         143.2680  139.5147  161.8642 N.ar    1  UNL1       -0.2694
      6 C         143.4546  140.4238  163.0427 C.ar    1  UNL1        0.0986
      7 C         143.0729  140.2863  164.4867 C.ar    1  UNL1        0.0224
      8 C         143.3972  141.3843  165.4559 C.ar    1  UNL1        0.0267
      9 C         144.1030  142.6197  164.9811 C.ar    1  UNL1        0.1011
     10 N         144.4847  142.7572  163.5370 N.ar    1  UNL1       -0.2251
     11 C         144.1605  141.6592  162.5678 C.ar    1  UNL1        0.1633
     12 C         143.0155  141.2468  166.9001 C.ar    1  UNL1        0.0309
     13 C         143.0450  142.3391  167.9277 C.ar    1  UNL1        0.0069
     14 C         142.5851  141.7603  169.2328 C.ar    1  UNL1        0.0081
     15 C         142.2713  140.3101  169.0119 C.ar    1  UNL1        0.0731
     16 S         142.5374  139.9928  167.5702 S.2     1  UNL1       -0.0858
     17 C         141.7782  139.3466  170.0503 C.3     1  UNL1        0.3468
     18 F         142.5337  138.0782  170.3155 F       1  UNL1       -0.1927
     19 F         140.5295  139.6514  170.8235 F       1  UNL1       -0.1927
     20 C         142.6069  138.1684  161.8853 C.3     1  UNL1        0.1956
     21 C         141.1121  138.0657  161.8141 C.2     1  UNL1        0.2489
     22 O         140.4112  138.2258  160.4976 O.2     1  UNL1       -0.2728
     23 N         140.3182  137.8028  163.0593 N.am    1  UNL1       -0.2778
     24 C         138.8605  137.6403  163.3732 C.3     1  UNL1        0.0952
     25 C         139.1955  137.4310  164.8204 C.3     1  UNL1        0.0430
     26 C         140.6532  137.5934  164.5064 C.3     1  UNL1        0.0952
@<TRIPOS>BOND
     1     1     2    1
     2     2     3   ar
     3     3     4    2
     4     3     5   ar
     5     5    20    1
     6    20    21    1
     7    21    22    2
     8    21    23   am
     9    23    24    1
    10    24    25    1
    11    25    26    1
    12     5     6   ar
    13     6     7   ar
    14     7     8   ar
    15     8    12    1
    16    12    13   ar
    17    13    14   ar
    18    14    15   ar
    19    15    17    1
    20    17    18    1
    21    17    19    1
    22    15    16   ar
    23     8     9   ar
    24     9    10   ar
    25    10    11   ar
    26    11     2   ar
    27    26    23    1
    28    11     6   ar
    29    16    12   ar
@<TRIPOS>MOLECULE
*****
 26 29 0 0 0
SMALL
GASTEIGER

@<TRIPOS>ATOM
      1 C         138.1322  138.9286  160.9194 C.3     1  UNL1        0.1366
      2 N         139.2976  138.9142  161.8638 N.ar    1  UNL1       -0.2630
      3 C         140.7175  138.5881  161.5070 C.ar    1  UNL1        0.3331
      4 O         141.2215  138.2191  160.1433 O.2     1  UNL1       -0.2462
      5 N         141.5450  138.6957  162.7535 N.ar    1  UNL1       -0.2694
      6 C         140.6364  139.0884  163.8806 C.ar    1  UNL1        0.0986
      7 C         140.8945  139.3404  165.3365 C.ar    1  UNL1        0.0224
      8 C         139.7635  139.7275  166.2426 C.ar    1  UNL1        0.0267
      9 C         138.3745  139.8625  165.6927 C.ar    1  UNL1        0.1011
     10 N         138.1164  139.6105  164.2368 N.ar    1  UNL1       -0.2251
     11 C         139.2474  139.2234  163.3307 C.ar    1  UNL1        0.1633
     12 C         140.0215  139.9795  167.6987 C.ar    1  UNL1        0.0309
     13 C         138.9903  139.9901  168.7879 C.ar    1  UNL1        0.0069
     14 C         139.6875  140.2824  170.0835 C.ar    1  UNL1        0.0081
     15 C         141.1497  140.4524  169.7949 C.ar    1  UNL1        0.0731
     16 S         141.3561  140.2652  168.3210 S.2     1  UNL1       -0.0858
     17 C         142.2179  140.7562  170.8032 C.3     1  UNL1        0.3468
     18 F         142.1290  141.9989  171.6385 F       1  UNL1       -0.1927
     19 F         143.3748  139.8173  170.9762 F       1  UNL1       -0.1927
     20 C         143.0218  138.4533  162.8551 C.3     1  UNL1        0.1956
     21 C         143.9856  139.4290  162.2474 C.2     1  UNL1        0.2489
     22 O         144.4150  139.2685  160.8192 O.2     1  UNL1       -0.2728
     23 N         144.5200  140.5653  163.0681 N.am    1  UNL1       -0.2778
     24 C         145.4666  141.7014  162.8171 C.3     1  UNL1        0.0952
     25 C         145.2757  142.1721  164.2286 C.3     1  UNL1        0.0430
     26 C         144.3291  141.0359  164.4795 C.3     1  UNL1        0.0952
@<TRIPOS>BOND
     1     1     2    1
     2     2     3   ar
     3     3     4    2
     4     3     5   ar
     5     5    20    1
     6    20    21    1
     7    21    22    2
     8    21    23   am
     9    23    24    1
    10    24    25    1
    11    25    26    1
    12     5     6   ar
    13     6     7   ar
    14     7     8   ar
    15     8    12    1
    16    12    13   ar
    17    13    14   ar
    18    14    15   ar
    19    15    17    1
    20    17    18    1
    21    17    19    1
    22    15    16   ar
    23     8     9   ar
    24     9    10   ar
    25    10    11   ar
    26    11     2   ar
    27    26    23    1
    28    11     6   ar
    29    16    12   ar
@<TRIPOS>MOLECULE
*****
 26 29 0 0 0
SMALL
GASTEIGER

@<TRIPOS>ATOM
      1 C         138.3167  141.8450  156.6543 C.3     1  UNL1        0.1366
      2 N         138.7873  142.1305  158.0497 N.ar    1  UNL1       -0.2630
      3 C         139.4874  143.3759  158.5065 C.ar    1  UNL1        0.3331
      4 O         139.8397  144.5546  157.6483 O.2     1  UNL1       -0.2462
      5 N         139.7732  143.2357  159.9724 N.ar    1  UNL1       -0.2694
      6 C         139.2498  141.9036  160.4214 C.ar    1  UNL1        0.0986
      7 C         139.2493  141.2245  161.7588 C.ar    1  UNL1        0.0224
      8 C         138.6396  139.8622  161.9079 C.ar    1  UNL1        0.0267
      9 C         138.0302  139.1791  160.7196 C.ar    1  UNL1        0.1011
     10 N         138.0307  139.8583  159.3822 N.ar    1  UNL1       -0.2251
     11 C         138.6405  141.2205  159.2331 C.ar    1  UNL1        0.1633
     12 C         138.6391  139.1829  163.2453 C.ar    1  UNL1        0.0309
     13 C         139.0703  137.7724  163.5180 C.ar    1  UNL1        0.0069
     14 C         138.9050  137.5127  164.9860 C.ar    1  UNL1        0.0081
     15 C         138.3715  138.7628  165.6207 C.ar    1  UNL1        0.0731
     16 S         138.2072  139.7950  164.5449 S.2     1  UNL1       -0.0858
     17 C         138.0575  138.9481  167.0757 C.3     1  UNL1        0.3468
     18 F         136.9215  138.1932  167.6999 F       1  UNL1       -0.1927
     19 F         138.8796  139.8882  167.9066 F       1  UNL1       -0.1927
     20 C         140.4616  144.2496  160.8373 C.3     1  UNL1        0.1956
     21 C         141.9579  144.2523  160.9441 C.2     1  UNL1        0.2489
     22 O         142.7966  143.9667  159.7338 O.2     1  UNL1       -0.2728
     23 N         142.6153  144.5405  162.2612 N.am    1  UNL1       -0.2778
     24 C         144.0334  144.6289  162.7419 C.3     1  UNL1        0.0952
     25 C         143.5450  144.9482  164.1238 C.3     1  UNL1        0.0430
     26 C         142.1269  144.8599  163.6430 C.3     1  UNL1        0.0952
@<TRIPOS>BOND
     1     1     2    1
     2     2     3   ar
     3     3     4    2
     4     3     5   ar
     5     5    20    1
     6    20    21    1
     7    21    22    2
     8    21    23   am
     9    23    24    1
    10    24    25    1
    11    25    26    1
    12     5     6   ar
    13     6     7   ar
    14     7     8   ar
    15     8    12    1
    16    12    13   ar
    17    13    14   ar
    18    14    15   ar
    19    15    17    1
    20    17    18    1
    21    17    19    1
    22    15    16   ar
    23     8     9   ar
    24     9    10   ar
    25    10    11   ar
    26    11     2   ar
    27    26    23    1
    28    11     6   ar
    29    16    12   ar
@<TRIPOS>MOLECULE
*****
 26 29 0 0 0
SMALL
GASTEIGER

@<TRIPOS>ATOM
      1 C         143.9109  141.1650  159.8893 C.3     1  UNL1        0.1366
      2 N         143.3673  141.9444  161.0499 N.ar    1  UNL1       -0.2630
      3 C         142.7653  143.3168  160.9858 C.ar    1  UNL1        0.3331
      4 O         142.6013  144.1508  159.7499 O.2     1  UNL1       -0.2462
      5 N         142.3562  143.7088  162.3747 N.ar    1  UNL1       -0.2694
      6 C         142.7053  142.5786  163.2971 C.ar    1  UNL1        0.0986
      7 C         142.5349  142.4016  164.7768 C.ar    1  UNL1        0.0224
      8 C         142.9894  141.1342  165.4378 C.ar    1  UNL1        0.0267
      9 C         143.6143  140.0437  164.6190 C.ar    1  UNL1        0.1011
     10 N         143.7847  140.2207  163.1393 N.ar    1  UNL1       -0.2251
     11 C         143.3302  141.4882  162.4784 C.ar    1  UNL1        0.1633
     12 C         142.8190  140.9571  166.9176 C.ar    1  UNL1        0.0309
     13 C         142.7174  139.6481  167.6430 C.ar    1  UNL1        0.0069
     14 C         142.5559  139.9400  169.1054 C.ar    1  UNL1        0.0081
     15 C         142.5578  141.4294  169.2839 C.ar    1  UNL1        0.0731
     16 S         142.7204  142.0580  167.9317 S.2     1  UNL1       -0.0858
     17 C         142.4210  142.1616  170.5858 C.3     1  UNL1        0.3468
     18 F         143.1964  143.4239  170.8214 F       1  UNL1       -0.1927
     19 F         141.5089  141.6315  171.6522 F       1  UNL1       -0.1927
     20 C         141.7112  145.0036  162.7715 C.3     1  UNL1        0.1956
     21 C         140.2611  145.2423  162.4708 C.2     1  UNL1        0.2489
     22 O         139.8651  146.2784  161.4610 O.2     1  UNL1       -0.2728
     23 N         139.2069  144.4448  163.1799 N.am    1  UNL1       -0.2778
     24 C         137.7080  144.4014  163.1463 C.3     1  UNL1        0.0952
     25 C         137.7162  143.3170  164.1827 C.3     1  UNL1        0.0430
     26 C         139.2152  143.3604  164.2163 C.3     1  UNL1        0.0952
@<TRIPOS>BOND
     1     1     2    1
     2     2     3   ar
     3     3     4    2
     4     3     5   ar
     5     5    20    1
     6    20    21    1
     7    21    22    2
     8    21    23   am
     9    23    24    1
    10    24    25    1
    11    25    26    1
    12     5     6   ar
    13     6     7   ar
    14     7     8   ar
    15     8    12    1
    16    12    13   ar
    17    13    14   ar
    18    14    15   ar
    19    15    17    1
    20    17    18    1
    21    17    19    1
    22    15    16   ar
    23     8     9   ar
    24     9    10   ar
    25    10    11   ar
    26    11     2   ar
    27    26    23    1
    28    11     6   ar
    29    16    12   ar
@<TRIPOS>MOLECULE
*****
 26 29 0 0 0
SMALL
GASTEIGER

@<TRIPOS>ATOM
      1 C         142.5581  139.2359  169.5061 C.3     1  UNL1        0.1366
      2 N         142.5666  139.4687  168.0243 N.ar    1  UNL1       -0.2630
      3 C         143.3305  138.6693  167.0106 C.ar    1  UNL1        0.3331
      4 O         144.2199  137.4969  167.3008 O.2     1  UNL1       -0.2462
      5 N         143.0487  139.2483  165.6559 N.ar    1  UNL1       -0.2694
      6 C         142.1106  140.4055  165.8322 C.ar    1  UNL1        0.0986
      7 C         141.4893  141.3527  164.8491 C.ar    1  UNL1        0.0224
      8 C         140.5701  142.4361  165.3297 C.ar    1  UNL1        0.0267
      9 C         140.2721  142.5723  166.7935 C.ar    1  UNL1        0.1011
     10 N         140.8934  141.6251  167.7767 N.ar    1  UNL1       -0.2251
     11 C         141.8127  140.5417  167.2960 C.ar    1  UNL1        0.1633
     12 C         139.9487  143.3835  164.3465 C.ar    1  UNL1        0.0309
     13 C         138.4906  143.7217  164.2487 C.ar    1  UNL1        0.0069
     14 C         138.3171  144.7061  163.1303 C.ar    1  UNL1        0.0081
     15 C         139.6680  144.9763  162.5369 C.ar    1  UNL1        0.0731
     16 S         140.6764  144.1589  163.2886 S.2     1  UNL1       -0.0858
     17 C         139.9594  145.9015  161.3928 C.3     1  UNL1        0.3468
     18 F         139.1001  147.1103  161.1682 F       1  UNL1       -0.1927
     19 F         141.1101  145.6179  160.4732 F       1  UNL1       -0.1927
     20 C         143.6069  138.7565  164.3534 C.3     1  UNL1        0.1956
     21 C         142.6916  138.1744  163.3171 C.2     1  UNL1        0.2489
     22 O         141.5101  137.3514  163.7374 O.2     1  UNL1       -0.2728
     23 N         142.9580  138.4154  161.8608 N.am    1  UNL1       -0.2778
     24 C         142.2903  138.0121  160.5796 C.3     1  UNL1        0.0952
     25 C         143.3347  138.7562  159.8012 C.3     1  UNL1        0.0430
     26 C         144.0023  139.1594  161.0824 C.3     1  UNL1        0.0952
@<TRIPOS>BOND
     1     1     2    1
     2     2     3   ar
     3     3     4    2
     4     3     5   ar
     5     5    20    1
     6    20    21    1
     7    21    22    2
     8    21    23   am
     9    23    24    1
    10    24    25    1
    11    25    26    1
    12     5     6   ar
    13     6     7   ar
    14     7     8   ar
    15     8    12    1
    16    12    13   ar
    17    13    14   ar
    18    14    15   ar
    19    15    17    1
    20    17    18    1
    21    17    19    1
    22    15    16   ar
    23     8     9   ar
    24     9    10   ar
    25    10    11   ar
    26    11     2   ar
    27    26    23    1
    28    11     6   ar
    29    16    12   ar
