@<TRIPOS>MOLECULE
*****
 35 39 0 0 0
SMALL
GASTEIGER

@<TRIPOS>ATOM
      1 C         139.2720  142.9332  161.4194 C.2     1  UNL1        0.2470
      2 O         138.9616  144.3763  161.6860 O.2     1  UNL1       -0.2820
      3 C         138.4910  141.8573  162.1140 C.2     1  UNL1        0.2880
      4 O         137.4164  141.1153  161.3760 O.2     1  UNL1       -0.2664
      5 N         138.7846  141.5234  163.5465 N.am    1  UNL1       -0.2700
      6 C         139.8593  142.2654  164.2846 C.3     1  UNL1        0.1153
      7 C         140.1528  141.9315  165.7171 C.3     1  UNL1        0.1152
      8 N         139.3718  140.8556  166.4117 N.am    1  UNL1       -0.2726
      9 C         139.6654  140.5216  167.8443 C.2     1  UNL1        0.2491
     10 O         138.8843  139.4457  168.5389 O.2     1  UNL1       -0.2699
     11 C         138.2972  140.1136  165.6737 C.3     1  UNL1        0.1152
     12 C         138.0036  140.4475  164.2411 C.3     1  UNL1        0.1153
     13 C         140.7400  141.2636  168.5823 C.ar    1  UNL1        0.0536
     14 C         142.1218  140.6872  168.6742 C.ar    1  UNL1        0.0045
     15 C         143.1964  141.4292  169.4122 C.ar    1  UNL1        0.0001
     16 C         142.8892  142.7476  170.0584 C.ar    1  UNL1        0.0000
     17 C         141.5075  143.3240  169.9665 C.ar    1  UNL1        0.0001
     18 C         140.4329  142.5820  169.2285 C.ar    1  UNL1        0.0045
     19 C         142.6111  143.3210  161.8326 C.2     1  UNL1        0.1448
     20 C         144.1085  143.3830  161.7695 C.2     1  UNL1        0.1335
     21 N         144.8295  142.8792  160.5546 N.2     1  UNL1       -0.2211
     22 C         144.0532  142.3133  159.4026 C.2     1  UNL1        0.1799
     23 C         142.5558  142.2512  159.4656 C.2     1  UNL1        0.1058
     24 N         141.5301  141.7507  158.4922 N.2     1  UNL1       -0.2445
     25 C         140.1752  141.9453  159.1057 C.2     1  UNL1        0.0984
     26 C         140.3635  142.5660  160.4582 C.2     1  UNL1        0.0531
     27 C         141.8348  142.7551  160.6806 C.3     1  UNL1        0.1284
     28 N         144.7743  141.8094  158.1876 N.ar    1  UNL1       -0.1894
     29 C         144.4729  140.5407  157.4463 C.ar    1  UNL1        0.2027
     30 N         145.4357  140.4330  156.3011 N.ar    1  UNL1       -0.2072
     31 C         146.3322  141.6352  156.3348 C.ar    1  UNL1        0.1613
     32 C         147.4426  141.9343  155.3716 C.3     1  UNL1        0.0756
     33 N         145.9234  142.4858  157.5007 N.ar    1  UNL1       -0.1474
     34 C         141.9997  145.2685  163.4399 C.3     1  UNL1        0.2521
     35 O         141.8901  143.8249  163.0476 O.2     1  UNL1       -0.4734
@<TRIPOS>BOND
     1    34    35    1
     2    35    19    1
     3    19    20    2
     4    20    21    1
     5    21    22    2
     6    22    28    1
     7    28    29   ar
     8    29    30   ar
     9    30    31   ar
    10    31    32    1
    11    31    33   ar
    12    22    23    1
    13    23    24    2
    14    24    25    1
    15    25    26    2
    16    26     1    1
    17     1     2    2
    18     1     3    1
    19     3     4    2
    20     3     5   am
    21     5     6    1
    22     6     7    1
    23     7     8    1
    24     8     9   am
    25     9    10    2
    26     9    13    1
    27    13    14   ar
    28    14    15   ar
    29    15    16   ar
    30    16    17   ar
    31    17    18   ar
    32     8    11    1
    33    11    12    1
    34    26    27    1
    35    27    19    1
    36    33    28   ar
    37    27    23    1
    38    12     5    1
    39    18    13   ar
@<TRIPOS>MOLECULE
*****
 35 39 0 0 0
SMALL
GASTEIGER

@<TRIPOS>ATOM
      1 C         140.7571  138.8254  162.0714 C.2     1  UNL1        0.2470
      2 O         142.0163  138.0103  162.0720 O.2     1  UNL1       -0.2820
      3 C         139.6170  138.4451  162.9689 C.2     1  UNL1        0.2880
      4 O         138.4864  137.6164  162.4352 O.2     1  UNL1       -0.2664
      5 N         139.6076  138.8936  164.4002 N.am    1  UNL1       -0.2700
      6 C         140.7382  139.7224  164.9341 C.3     1  UNL1        0.1153
      7 C         140.7287  140.1708  166.3654 C.3     1  UNL1        0.1152
      8 N         139.5886  139.7906  167.2630 N.am    1  UNL1       -0.2726
      9 C         139.5791  140.2390  168.6944 C.2     1  UNL1        0.2491
     10 O         138.4390  139.8588  169.5919 O.2     1  UNL1       -0.2699
     11 C         138.4580  138.9618  166.7292 C.3     1  UNL1        0.1152
     12 C         138.4675  138.5134  165.2979 C.3     1  UNL1        0.1153
     13 C         140.7097  141.0677  169.2281 C.ar    1  UNL1        0.0536
     14 C         142.0234  140.4220  169.5557 C.ar    1  UNL1        0.0045
     15 C         143.1541  141.2508  170.0896 C.ar    1  UNL1        0.0001
     16 C         142.9710  142.7253  170.2957 C.ar    1  UNL1        0.0000
     17 C         141.6573  143.3709  169.9681 C.ar    1  UNL1        0.0001
     18 C         140.5268  142.5422  169.4344 C.ar    1  UNL1        0.0045
     19 C         142.8562  141.4751  161.8629 C.2     1  UNL1        0.1448
     20 C         143.6152  142.7379  161.5813 C.2     1  UNL1        0.1335
     21 N         143.1106  143.7018  160.5489 N.2     1  UNL1       -0.2211
     22 C         141.8469  143.4030  159.7978 C.2     1  UNL1        0.1799
     23 C         141.0880  142.1402  160.0793 C.2     1  UNL1        0.1058
     24 N         139.8215  141.5806  159.5025 N.2     1  UNL1       -0.2445
     25 C         139.5434  140.2707  160.1785 C.2     1  UNL1        0.0984
     26 C         140.6380  140.0208  161.1732 C.2     1  UNL1        0.0531
     27 C         141.5927  141.1762  161.1119 C.3     1  UNL1        0.1284
     28 N         141.3423  144.3670  158.7653 N.ar    1  UNL1       -0.1894
     29 C         140.3465  145.4648  158.9959 C.ar    1  UNL1        0.2027
     30 N         140.1337  146.1787  157.6940 N.ar    1  UNL1       -0.2072
     31 C         140.9980  145.5221  156.6587 C.ar    1  UNL1        0.1613
     32 C         141.0979  145.9160  155.2147 C.3     1  UNL1        0.0756
     33 N         141.7450  144.4024  157.3208 N.ar    1  UNL1       -0.1474
     34 C         144.8025  140.5415  163.3087 C.3     1  UNL1        0.2521
     35 O         143.3609  140.5111  162.8954 O.2     1  UNL1       -0.4734
@<TRIPOS>BOND
     1    34    35    1
     2    35    19    1
     3    19    20    2
     4    20    21    1
     5    21    22    2
     6    22    28    1
     7    28    29   ar
     8    29    30   ar
     9    30    31   ar
    10    31    32    1
    11    31    33   ar
    12    22    23    1
    13    23    24    2
    14    24    25    1
    15    25    26    2
    16    26     1    1
    17     1     2    2
    18     1     3    1
    19     3     4    2
    20     3     5   am
    21     5     6    1
    22     6     7    1
    23     7     8    1
    24     8     9   am
    25     9    10    2
    26     9    13    1
    27    13    14   ar
    28    14    15   ar
    29    15    16   ar
    30    16    17   ar
    31    17    18   ar
    32     8    11    1
    33    11    12    1
    34    26    27    1
    35    27    19    1
    36    33    28   ar
    37    27    23    1
    38    12     5    1
    39    18    13   ar
@<TRIPOS>MOLECULE
*****
 35 39 0 0 0
SMALL
GASTEIGER

@<TRIPOS>ATOM
      1 C         139.0744  140.3309  161.6372 C.2     1  UNL1        0.2470
      2 O         137.7463  140.4244  162.3282 O.2     1  UNL1       -0.2820
      3 C         140.0594  139.2757  162.0451 C.2     1  UNL1        0.2880
      4 O         140.4391  138.1912  161.0809 O.2     1  UNL1       -0.2664
      5 N         140.6647  139.3051  163.4172 N.am    1  UNL1       -0.2700
      6 C         140.2850  140.3896  164.3814 C.3     1  UNL1        0.1153
      7 C         140.8904  140.4190  165.7535 C.3     1  UNL1        0.1152
      8 N         141.8754  139.3638  166.1614 N.am    1  UNL1       -0.2726
      9 C         142.4808  139.3931  167.5335 C.2     1  UNL1        0.2491
     10 O         143.4658  138.3379  167.9414 O.2     1  UNL1       -0.2699
     11 C         142.2551  138.2793  165.1972 C.3     1  UNL1        0.1152
     12 C         141.6497  138.2500  163.8251 C.3     1  UNL1        0.1153
     13 C         142.1011  140.4776  168.4977 C.ar    1  UNL1        0.0536
     14 C         140.8506  140.3495  169.3161 C.ar    1  UNL1        0.0045
     15 C         140.4709  141.4341  170.2803 C.ar    1  UNL1        0.0001
     16 C         141.3418  142.6467  170.4262 C.ar    1  UNL1        0.0000
     17 C         142.5923  142.7747  169.6079 C.ar    1  UNL1        0.0001
     18 C         142.9720  141.6902  168.6437 C.ar    1  UNL1        0.0045
     19 C         139.4253  143.6919  161.8626 C.2     1  UNL1        0.1448
     20 C         139.6344  145.1681  161.6980 C.2     1  UNL1        0.1335
     21 N         139.9818  145.7309  160.3518 N.2     1  UNL1       -0.2211
     22 C         140.1201  144.8175  159.1699 C.2     1  UNL1        0.1799
     23 C         139.9110  143.3413  159.3345 C.2     1  UNL1        0.1058
     24 N         139.9794  142.2032  158.3599 N.2     1  UNL1       -0.2445
     25 C         139.6744  140.9369  159.1039 C.2     1  UNL1        0.0984
     26 C         139.4174  141.2925  160.5383 C.2     1  UNL1        0.0531
     27 C         139.5636  142.7785  160.6808 C.3     1  UNL1        0.1284
     28 N         140.4674  145.3804  157.8236 N.ar    1  UNL1       -0.1894
     29 C         141.6739  145.0277  157.0050 C.ar    1  UNL1        0.2027
     30 N         141.6214  145.8241  155.7350 N.ar    1  UNL1       -0.2072
     31 C         140.3825  146.6692  155.7688 C.ar    1  UNL1        0.1613
     32 C         139.9352  147.6213  154.6994 C.3     1  UNL1        0.0756
     33 N         139.6693  146.3949  157.0596 N.ar    1  UNL1       -0.1474
     34 C         138.0366  143.7988  164.0558 C.3     1  UNL1        0.2521
     35 O         139.0779  143.1291  163.2089 O.2     1  UNL1       -0.4734
@<TRIPOS>BOND
     1    34    35    1
     2    35    19    1
     3    19    20    2
     4    20    21    1
     5    21    22    2
     6    22    28    1
     7    28    29   ar
     8    29    30   ar
     9    30    31   ar
    10    31    32    1
    11    31    33   ar
    12    22    23    1
    13    23    24    2
    14    24    25    1
    15    25    26    2
    16    26     1    1
    17     1     2    2
    18     1     3    1
    19     3     4    2
    20     3     5   am
    21     5     6    1
    22     6     7    1
    23     7     8    1
    24     8     9   am
    25     9    10    2
    26     9    13    1
    27    13    14   ar
    28    14    15   ar
    29    15    16   ar
    30    16    17   ar
    31    17    18   ar
    32     8    11    1
    33    11    12    1
    34    26    27    1
    35    27    19    1
    36    33    28   ar
    37    27    23    1
    38    12     5    1
    39    18    13   ar
@<TRIPOS>MOLECULE
*****
 35 39 0 0 0
SMALL
GASTEIGER

@<TRIPOS>ATOM
      1 C         140.5021  140.5167  161.4244 C.2     1  UNL1        0.2470
      2 O         141.9672  140.2548  161.6115 O.2     1  UNL1       -0.2820
      3 C         139.4967  139.7912  162.2688 C.2     1  UNL1        0.2880
      4 O         138.4493  138.9361  161.6194 O.2     1  UNL1       -0.2664
      5 N         139.5388  139.9209  163.7625 N.am    1  UNL1       -0.2700
      6 C         140.5863  140.7760  164.4120 C.3     1  UNL1        0.1153
      7 C         140.6283  140.9056  165.9058 C.3     1  UNL1        0.1152
      8 N         139.6229  140.1801  166.7502 N.am    1  UNL1       -0.2726
      9 C         139.6649  140.3098  168.2439 C.2     1  UNL1        0.2491
     10 O         138.6595  139.5843  169.0883 O.2     1  UNL1       -0.2699
     11 C         138.5755  139.3251  166.1007 C.3     1  UNL1        0.1152
     12 C         138.5335  139.1955  164.6070 C.3     1  UNL1        0.1153
     13 C         140.7123  141.1648  168.8934 C.ar    1  UNL1        0.0536
     14 C         142.0771  140.6038  169.1632 C.ar    1  UNL1        0.0045
     15 C         143.1245  141.4590  169.8127 C.ar    1  UNL1        0.0001
     16 C         142.8072  142.8750  170.1922 C.ar    1  UNL1        0.0000
     17 C         141.4425  143.4360  169.9224 C.ar    1  UNL1        0.0001
     18 C         140.3951  142.5809  169.2730 C.ar    1  UNL1        0.0045
     19 C         140.1661  140.0223  158.0907 C.2     1  UNL1        0.1448
     20 C         139.9362  140.0609  156.6090 C.2     1  UNL1        0.1335
     21 N         139.4475  141.3209  155.9584 N.2     1  UNL1       -0.2211
     22 C         139.1886  142.5425  156.7896 C.2     1  UNL1        0.1799
     23 C         139.4186  142.5039  158.2713 C.2     1  UNL1        0.1058
     24 N         139.2516  143.5429  159.3403 N.2     1  UNL1       -0.2445
     25 C         139.6372  142.9249  160.6515 C.2     1  UNL1        0.0984
     26 C         140.0425  141.5040  160.3930 C.2     1  UNL1        0.0531
     27 C         139.9073  141.2438  158.9219 C.3     1  UNL1        0.1284
     28 N         138.6999  143.8026  156.1389 N.ar    1  UNL1       -0.1894
     29 C         137.3958  143.9740  155.4177 C.ar    1  UNL1        0.2027
     30 N         137.3194  145.3899  154.9283 N.ar    1  UNL1       -0.2072
     31 C         138.5763  146.0935  155.3470 C.ar    1  UNL1        0.1613
     32 C         138.9197  147.5265  155.0668 C.3     1  UNL1        0.0756
     33 N         139.4294  145.1125  156.0952 N.ar    1  UNL1       -0.1474
     34 C         142.0507  138.2775  158.4831 C.3     1  UNL1        0.2521
     35 O         140.6549  138.7622  158.7413 O.2     1  UNL1       -0.4734
@<TRIPOS>BOND
     1    34    35    1
     2    35    19    1
     3    19    20    2
     4    20    21    1
     5    21    22    2
     6    22    28    1
     7    28    29   ar
     8    29    30   ar
     9    30    31   ar
    10    31    32    1
    11    31    33   ar
    12    22    23    1
    13    23    24    2
    14    24    25    1
    15    25    26    2
    16    26     1    1
    17     1     2    2
    18     1     3    1
    19     3     4    2
    20     3     5   am
    21     5     6    1
    22     6     7    1
    23     7     8    1
    24     8     9   am
    25     9    10    2
    26     9    13    1
    27    13    14   ar
    28    14    15   ar
    29    15    16   ar
    30    16    17   ar
    31    17    18   ar
    32     8    11    1
    33    11    12    1
    34    26    27    1
    35    27    19    1
    36    33    28   ar
    37    27    23    1
    38    12     5    1
    39    18    13   ar
@<TRIPOS>MOLECULE
*****
 35 39 0 0 0
SMALL
GASTEIGER

@<TRIPOS>ATOM
      1 C         139.1207  140.4564  159.4146 C.2     1  UNL1        0.2470
      2 O         137.8542  140.3614  158.6165 O.2     1  UNL1       -0.2820
      3 C         140.4095  140.8154  158.7362 C.2     1  UNL1        0.2880
      4 O         140.8894  142.2366  158.7417 O.2     1  UNL1       -0.2664
      5 N         141.2184  139.7533  158.0525 N.am    1  UNL1       -0.2700
      6 C         140.7385  138.3321  158.0470 C.3     1  UNL1        0.1153
      7 C         141.5475  137.2700  157.3633 C.3     1  UNL1        0.1152
      8 N         142.8363  137.6290  156.6849 N.am    1  UNL1       -0.2726
      9 C         143.6452  136.5669  156.0012 C.2     1  UNL1        0.2491
     10 O         144.9340  136.9260  155.3228 O.2     1  UNL1       -0.2699
     11 C         143.3161  139.0502  156.6904 C.3     1  UNL1        0.1152
     12 C         142.5072  140.1123  157.3742 C.3     1  UNL1        0.1153
     13 C         143.1654  135.1458  155.9957 C.ar    1  UNL1        0.0536
     14 C         143.6703  134.1797  157.0262 C.ar    1  UNL1        0.0045
     15 C         143.1904  132.7585  157.0207 C.ar    1  UNL1        0.0001
     16 C         142.2056  132.3034  155.9848 C.ar    1  UNL1        0.0000
     17 C         141.7007  133.2694  154.9544 C.ar    1  UNL1        0.0001
     18 C         142.1805  134.6906  154.9599 C.ar    1  UNL1        0.0045
     19 C         138.8246  142.7186  161.9176 C.2     1  UNL1        0.1448
     20 C         138.7087  143.5058  163.1892 C.2     1  UNL1        0.1335
     21 N         138.7333  142.8005  164.5127 N.2     1  UNL1       -0.2211
     22 C         138.8739  141.3080  164.5648 C.2     1  UNL1        0.1799
     23 C         138.9899  140.5208  163.2932 C.2     1  UNL1        0.1058
     24 N         139.1383  139.0511  163.0326 N.2     1  UNL1       -0.2445
     25 C         139.2054  138.8481  161.5480 C.2     1  UNL1        0.0984
     26 C         139.0984  140.1923  160.8910 C.2     1  UNL1        0.0531
     27 C         138.9652  141.2261  161.9696 C.3     1  UNL1        0.1284
     28 N         138.8986  140.6027  165.8885 N.ar    1  UNL1       -0.1894
     29 C         138.0424  139.4355  166.2817 C.ar    1  UNL1        0.2027
     30 N         138.3985  139.0523  167.6876 N.ar    1  UNL1       -0.2072
     31 C         139.4747  139.9827  168.1631 C.ar    1  UNL1        0.1613
     32 C         140.1273  139.9591  169.5136 C.3     1  UNL1        0.0756
     33 N         139.7838  140.9409  167.0512 N.ar    1  UNL1       -0.1474
     34 C         139.6639  144.6296  160.3704 C.3     1  UNL1        0.2521
     35 O         138.7999  143.4240  160.5940 O.2     1  UNL1       -0.4734
@<TRIPOS>BOND
     1    34    35    1
     2    35    19    1
     3    19    20    2
     4    20    21    1
     5    21    22    2
     6    22    28    1
     7    28    29   ar
     8    29    30   ar
     9    30    31   ar
    10    31    32    1
    11    31    33   ar
    12    22    23    1
    13    23    24    2
    14    24    25    1
    15    25    26    2
    16    26     1    1
    17     1     2    2
    18     1     3    1
    19     3     4    2
    20     3     5   am
    21     5     6    1
    22     6     7    1
    23     7     8    1
    24     8     9   am
    25     9    10    2
    26     9    13    1
    27    13    14   ar
    28    14    15   ar
    29    15    16   ar
    30    16    17   ar
    31    17    18   ar
    32     8    11    1
    33    11    12    1
    34    26    27    1
    35    27    19    1
    36    33    28   ar
    37    27    23    1
    38    12     5    1
    39    18    13   ar
@<TRIPOS>MOLECULE
*****
 35 39 0 0 0
SMALL
GASTEIGER

@<TRIPOS>ATOM
      1 C         143.6517  143.4989  162.2124 C.2     1  UNL1        0.2470
      2 O         143.8508  144.9626  162.4726 O.2     1  UNL1       -0.2820
      3 C         144.2753  142.8597  161.0071 C.2     1  UNL1        0.2880
      4 O         145.5027  142.0111  161.1588 O.2     1  UNL1       -0.2664
      5 N         143.6713  143.0693  159.6502 N.am    1  UNL1       -0.2700
      6 C         142.4438  143.9180  159.4984 C.3     1  UNL1        0.1153
      7 C         141.8399  144.1275  158.1414 C.3     1  UNL1        0.1152
      8 N         142.4635  143.4884  156.9362 N.am    1  UNL1       -0.2726
      9 C         141.8596  143.6979  155.5792 C.2     1  UNL1        0.2491
     10 O         142.4832  143.0588  154.3739 O.2     1  UNL1       -0.2699
     11 C         143.6910  142.6397  157.0879 C.3     1  UNL1        0.1152
     12 C         144.2949  142.4302  158.4449 C.3     1  UNL1        0.1153
     13 C         140.6322  144.5466  155.4275 C.ar    1  UNL1        0.0536
     14 C         139.2723  143.9164  155.4888 C.ar    1  UNL1        0.0045
     15 C         138.0448  144.7651  155.3370 C.ar    1  UNL1        0.0001
     16 C         138.1772  146.2440  155.1240 C.ar    1  UNL1        0.0000
     17 C         139.5369  146.8742  155.0627 C.ar    1  UNL1        0.0001
     18 C         140.7644  146.0255  155.2145 C.ar    1  UNL1        0.0045
     19 C         140.5605  144.1913  163.4107 C.2     1  UNL1        0.1448
     20 C         139.2168  144.2637  164.0734 C.2     1  UNL1        0.1335
     21 N         138.7725  143.1631  164.9904 N.2     1  UNL1       -0.2211
     22 C         139.6720  141.9898  165.2448 C.2     1  UNL1        0.1799
     23 C         141.0157  141.9174  164.5821 C.2     1  UNL1        0.1058
     24 N         142.1100  140.8933  164.6413 N.2     1  UNL1       -0.2445
     25 C         143.2307  141.3611  163.7608 C.2     1  UNL1        0.0984
     26 C         142.8289  142.6743  163.1574 C.2     1  UNL1        0.0531
     27 C         141.4599  143.0181  163.6650 C.3     1  UNL1        0.1284
     28 N         139.2276  140.8891  166.1619 N.ar    1  UNL1       -0.1894
     29 C         139.6243  140.7248  167.5991 C.ar    1  UNL1        0.2027
     30 N         138.9504  139.4936  168.1282 N.ar    1  UNL1       -0.2072
     31 C         138.1372  138.8970  167.0179 C.ar    1  UNL1        0.1613
     32 C         137.2996  137.6557  167.1072 C.3     1  UNL1        0.0756
     33 N         138.3085  139.7594  165.8027 N.ar    1  UNL1       -0.1474
     34 C         140.0253  145.9215  161.5478 C.3     1  UNL1        0.2521
     35 O         141.0048  145.2920  162.4936 O.2     1  UNL1       -0.4734
@<TRIPOS>BOND
     1    34    35    1
     2    35    19    1
     3    19    20    2
     4    20    21    1
     5    21    22    2
     6    22    28    1
     7    28    29   ar
     8    29    30   ar
     9    30    31   ar
    10    31    32    1
    11    31    33   ar
    12    22    23    1
    13    23    24    2
    14    24    25    1
    15    25    26    2
    16    26     1    1
    17     1     2    2
    18     1     3    1
    19     3     4    2
    20     3     5   am
    21     5     6    1
    22     6     7    1
    23     7     8    1
    24     8     9   am
    25     9    10    2
    26     9    13    1
    27    13    14   ar
    28    14    15   ar
    29    15    16   ar
    30    16    17   ar
    31    17    18   ar
    32     8    11    1
    33    11    12    1
    34    26    27    1
    35    27    19    1
    36    33    28   ar
    37    27    23    1
    38    12     5    1
    39    18    13   ar
@<TRIPOS>MOLECULE
*****
 35 39 0 0 0
SMALL
GASTEIGER

@<TRIPOS>ATOM
      1 C         140.0438  140.4220  161.0880 C.2     1  UNL1        0.2470
      2 O         138.9486  139.6040  160.4704 O.2     1  UNL1       -0.2820
      3 C         141.2037  140.8754  160.2520 C.2     1  UNL1        0.2880
      4 O         141.7698  142.2520  160.4383 O.2     1  UNL1       -0.2664
      5 N         141.7976  139.9523  159.2298 N.am    1  UNL1       -0.2700
      6 C         141.2316  138.5757  159.0435 C.3     1  UNL1        0.1153
      7 C         141.8256  137.6526  158.0212 C.3     1  UNL1        0.1152
      8 N         142.9856  138.1060  157.1852 N.am    1  UNL1       -0.2726
      9 C         143.5795  137.1829  156.1629 C.2     1  UNL1        0.2491
     10 O         144.7395  137.6364  155.3269 O.2     1  UNL1       -0.2699
     11 C         143.5516  139.4826  157.3715 C.3     1  UNL1        0.1152
     12 C         142.9576  140.4057  158.3938 C.3     1  UNL1        0.1153
     13 C         143.0135  135.8064  155.9766 C.ar    1  UNL1        0.0536
     14 C         141.9741  135.5590  154.9238 C.ar    1  UNL1        0.0045
     15 C         141.4081  134.1823  154.7375 C.ar    1  UNL1        0.0001
     16 C         141.8815  133.0532  155.6041 C.ar    1  UNL1        0.0000
     17 C         142.9209  133.3006  156.6568 C.ar    1  UNL1        0.0001
     18 C         143.4869  134.6771  156.8431 C.ar    1  UNL1        0.0045
     19 C         141.5993  138.8903  163.6775 C.2     1  UNL1        0.1448
     20 C         142.1670  138.3995  164.9762 C.2     1  UNL1        0.1335
     21 N         141.8209  139.0980  166.2577 N.2     1  UNL1       -0.2211
     22 C         140.9071  140.2874  166.2405 C.2     1  UNL1        0.1799
     23 C         140.3394  140.7783  164.9417 C.2     1  UNL1        0.1058
     24 N         139.4190  141.9168  164.6152 N.2     1  UNL1       -0.2445
     25 C         139.1962  141.9219  163.1318 C.2     1  UNL1        0.0984
     26 C         139.9790  140.7865  162.5416 C.2     1  UNL1        0.0531
     27 C         140.6855  140.0797  163.6602 C.3     1  UNL1        0.1284
     28 N         140.5611  140.9860  167.5221 N.ar    1  UNL1       -0.1894
     29 C         139.8571  140.3747  168.6971 C.ar    1  UNL1        0.2027
     30 N         139.7192  141.4294  169.7548 N.ar    1  UNL1       -0.2072
     31 C         140.3380  142.6924  169.2334 C.ar    1  UNL1        0.1613
     32 C         140.4218  144.0000  169.9636 C.3     1  UNL1        0.0756
     33 N         140.8583  142.4184  167.8534 N.ar    1  UNL1       -0.1474
     34 C         143.3799  138.0570  161.9789 C.3     1  UNL1        0.2521
     35 O         141.9454  138.1918  162.3960 O.2     1  UNL1       -0.4734
@<TRIPOS>BOND
     1    34    35    1
     2    35    19    1
     3    19    20    2
     4    20    21    1
     5    21    22    2
     6    22    28    1
     7    28    29   ar
     8    29    30   ar
     9    30    31   ar
    10    31    32    1
    11    31    33   ar
    12    22    23    1
    13    23    24    2
    14    24    25    1
    15    25    26    2
    16    26     1    1
    17     1     2    2
    18     1     3    1
    19     3     4    2
    20     3     5   am
    21     5     6    1
    22     6     7    1
    23     7     8    1
    24     8     9   am
    25     9    10    2
    26     9    13    1
    27    13    14   ar
    28    14    15   ar
    29    15    16   ar
    30    16    17   ar
    31    17    18   ar
    32     8    11    1
    33    11    12    1
    34    26    27    1
    35    27    19    1
    36    33    28   ar
    37    27    23    1
    38    12     5    1
    39    18    13   ar
@<TRIPOS>MOLECULE
*****
 35 39 0 0 0
SMALL
GASTEIGER

@<TRIPOS>ATOM
      1 C         144.4722  143.4575  165.5216 C.2     1  UNL1        0.2470
      2 O         145.1186  144.7726  165.8417 O.2     1  UNL1       -0.2820
      3 C         143.6909  142.7296  166.5751 C.2     1  UNL1        0.2880
      4 O         144.1007  142.8277  168.0147 O.2     1  UNL1       -0.2664
      5 N         142.4999  141.9037  166.1889 N.am    1  UNL1       -0.2700
      6 C         142.0900  141.8056  164.7493 C.3     1  UNL1        0.1153
      7 C         140.8989  140.9796  164.3632 C.3     1  UNL1        0.1152
      8 N         140.1176  140.2517  165.4166 N.am    1  UNL1       -0.2726
      9 C         138.9265  139.4258  165.0305 C.2     1  UNL1        0.2491
     10 O         138.1452  138.6979  166.0840 O.2     1  UNL1       -0.2699
     11 C         140.5274  140.3498  166.8562 C.3     1  UNL1        0.1152
     12 C         141.7185  141.1758  167.2423 C.3     1  UNL1        0.1153
     13 C         138.5167  139.3277  163.5910 C.ar    1  UNL1        0.0536
     14 C         138.8639  138.1053  162.7939 C.ar    1  UNL1        0.0045
     15 C         138.4541  138.0072  161.3543 C.ar    1  UNL1        0.0001
     16 C         137.6971  139.1316  160.7117 C.ar    1  UNL1        0.0000
     17 C         137.3500  140.3539  161.5087 C.ar    1  UNL1        0.0001
     18 C         137.7598  140.4520  162.9483 C.ar    1  UNL1        0.0045
     19 C         142.7639  144.3166  162.7262 C.2     1  UNL1        0.1448
     20 C         142.1549  144.5052  161.3685 C.2     1  UNL1        0.1335
     21 N         142.6107  143.6580  160.2177 N.2     1  UNL1       -0.2211
     22 C         143.6757  142.6221  160.4246 C.2     1  UNL1        0.1799
     23 C         144.2847  142.4335  161.7824 C.2     1  UNL1        0.1058
     24 N         145.3448  141.4993  162.2859 N.2     1  UNL1       -0.2445
     25 C         145.5440  141.7692  163.7479 C.2     1  UNL1        0.0984
     26 C         144.6071  142.8702  164.1480 C.2     1  UNL1        0.0531
     27 C         143.8288  143.2807  162.9332 C.3     1  UNL1        0.1284
     28 N         144.1316  141.7749  159.2738 N.ar    1  UNL1       -0.1894
     29 C         143.8172  140.3225  159.0692 C.ar    1  UNL1        0.2027
     30 N         144.4733  139.8814  157.7944 N.ar    1  UNL1       -0.2072
     31 C         145.1930  141.0611  157.2112 C.ar    1  UNL1        0.1613
     32 C         145.9850  141.0692  155.9373 C.3     1  UNL1        0.0756
     33 N         144.9819  142.2314  158.1255 N.ar    1  UNL1       -0.1474
     34 C         140.8692  145.1419  164.3008 C.3     1  UNL1        0.2521
     35 O         142.3079  145.1639  163.8770 O.2     1  UNL1       -0.4734
@<TRIPOS>BOND
     1    34    35    1
     2    35    19    1
     3    19    20    2
     4    20    21    1
     5    21    22    2
     6    22    28    1
     7    28    29   ar
     8    29    30   ar
     9    30    31   ar
    10    31    32    1
    11    31    33   ar
    12    22    23    1
    13    23    24    2
    14    24    25    1
    15    25    26    2
    16    26     1    1
    17     1     2    2
    18     1     3    1
    19     3     4    2
    20     3     5   am
    21     5     6    1
    22     6     7    1
    23     7     8    1
    24     8     9   am
    25     9    10    2
    26     9    13    1
    27    13    14   ar
    28    14    15   ar
    29    15    16   ar
    30    16    17   ar
    31    17    18   ar
    32     8    11    1
    33    11    12    1
    34    26    27    1
    35    27    19    1
    36    33    28   ar
    37    27    23    1
    38    12     5    1
    39    18    13   ar
@<TRIPOS>MOLECULE
*****
 35 39 0 0 0
SMALL
GASTEIGER

@<TRIPOS>ATOM
      1 C         140.7810  140.1629  157.4584 C.2     1  UNL1        0.2470
      2 O         141.2797  141.2675  156.5746 O.2     1  UNL1       -0.2820
      3 C         139.5945  140.3914  158.3473 C.2     1  UNL1        0.2880
      4 O         138.2249  139.9864  157.8889 O.2     1  UNL1       -0.2664
      5 N         139.7777  141.0248  159.6946 N.am    1  UNL1       -0.2700
      6 C         141.1474  141.4298  160.1530 C.3     1  UNL1        0.1153
      7 C         141.3305  142.0632  161.5003 C.3     1  UNL1        0.1152
      8 N         140.1440  142.2916  162.3892 N.am    1  UNL1       -0.2726
      9 C         140.3271  142.9251  163.7365 C.2     1  UNL1        0.2491
     10 O         139.1407  143.1535  164.6254 O.2     1  UNL1       -0.2699
     11 C         138.7744  141.8866  161.9308 C.3     1  UNL1        0.1152
     12 C         138.5913  141.2532  160.5835 C.3     1  UNL1        0.1153
     13 C         141.6967  143.3300  164.1949 C.ar    1  UNL1        0.0536
     14 C         142.4854  142.4239  165.0932 C.ar    1  UNL1        0.0045
     15 C         143.8551  142.8290  165.5517 C.ar    1  UNL1        0.0001
     16 C         144.4360  144.1401  165.1118 C.ar    1  UNL1        0.0000
     17 C         143.6474  145.0461  164.2135 C.ar    1  UNL1        0.0001
     18 C         142.2778  144.6411  163.7551 C.ar    1  UNL1        0.0045
     19 C         140.2478  137.5666  155.3500 C.2     1  UNL1        0.1448
     20 C         140.2040  136.2926  154.5595 C.2     1  UNL1        0.1335
     21 N         141.1144  135.1558  154.9180 N.2     1  UNL1       -0.2211
     22 C         142.0688  135.2929  156.0672 C.2     1  UNL1        0.1799
     23 C         142.1126  136.5669  156.8577 C.2     1  UNL1        0.1058
     24 N         142.9420  136.9904  158.0336 N.2     1  UNL1       -0.2445
     25 C         142.5441  138.3891  158.4017 C.2     1  UNL1        0.0984
     26 C         141.4688  138.8299  157.4534 C.2     1  UNL1        0.0531
     27 C         141.2021  137.7038  156.4991 C.3     1  UNL1        0.1284
     28 N         142.9792  134.1560  156.4258 N.ar    1  UNL1       -0.1894
     29 C         143.6380  133.9397  157.7559 C.ar    1  UNL1        0.2027
     30 N         144.4567  132.6858  157.6693 N.ar    1  UNL1       -0.2072
     31 C         144.3038  132.1271  156.2856 C.ar    1  UNL1        0.1613
     32 C         144.9505  130.8789  155.7622 C.3     1  UNL1        0.0756
     33 N         143.3907  133.0357  155.5171 N.ar    1  UNL1       -0.1474
     34 C         137.9122  138.4316  154.6106 C.3     1  UNL1        0.2521
     35 O         139.3373  138.7035  154.9914 O.2     1  UNL1       -0.4734
@<TRIPOS>BOND
     1    34    35    1
     2    35    19    1
     3    19    20    2
     4    20    21    1
     5    21    22    2
     6    22    28    1
     7    28    29   ar
     8    29    30   ar
     9    30    31   ar
    10    31    32    1
    11    31    33   ar
    12    22    23    1
    13    23    24    2
    14    24    25    1
    15    25    26    2
    16    26     1    1
    17     1     2    2
    18     1     3    1
    19     3     4    2
    20     3     5   am
    21     5     6    1
    22     6     7    1
    23     7     8    1
    24     8     9   am
    25     9    10    2
    26     9    13    1
    27    13    14   ar
    28    14    15   ar
    29    15    16   ar
    30    16    17   ar
    31    17    18   ar
    32     8    11    1
    33    11    12    1
    34    26    27    1
    35    27    19    1
    36    33    28   ar
    37    27    23    1
    38    12     5    1
    39    18    13   ar
