@<TRIPOS>MOLECULE
*****
 21 21 0 0 0
SMALL
GASTEIGER

@<TRIPOS>ATOM
      1 C         140.9590  140.7172  169.9289 C.3     1  UNL1        0.1498
      2 C         139.9877  140.1483  168.9376 C.1     1  UNL1       -0.0727
      3 C         139.0163  139.5793  167.9461 C.1     1  UNL1       -0.0849
      4 C         138.0450  139.0104  166.9548 C.3     1  UNL1        0.1023
      5 C         138.3994  138.9666  165.4979 C.ar    1  UNL1       -0.0092
      6 C         138.2174  140.1868  164.6448 C.ar    1  UNL1       -0.0036
      7 C         138.5718  140.1430  163.1879 C.ar    1  UNL1       -0.0045
      8 C         139.1082  138.8790  162.5841 C.ar    1  UNL1       -0.0219
      9 C         139.4625  138.8352  161.1273 C.3     1  UNL1        0.0310
     10 C         139.2901  137.6588  163.4373 C.ar    1  UNL1       -0.0045
     11 C         138.9358  137.7026  164.8942 C.ar    1  UNL1       -0.0036
     12 N         141.8887  141.8208  169.5195 N.3     1  UNL1       -0.2618
     13 C         141.7056  143.2013  170.0771 C.3     1  UNL1        0.0730
     14 C         140.4218  143.9408  169.8422 C.3     1  UNL1        0.0188
     15 C         143.0015  141.5440  168.5525 C.3     1  UNL1        0.0730
     16 C         142.9447  142.1059  167.1629 C.3     1  UNL1        0.0174
     17 C         141.9829  141.5366  166.1624 C.3     1  UNL1        0.0014
     18 C         141.1259  142.4530  165.3403 C.3     1  UNL1        0.0000
     19 C         139.9654  143.1626  165.9725 C.3     1  UNL1        0.0000
     20 C         137.8492  144.0799  164.7768 C.3     1  UNL1        0.0000
     21 C         139.2663  144.2641  165.2324 C.3     1  UNL1        0.0000
@<TRIPOS>BOND
     1    20    21    1
     2    21    19    1
     3    19    18    1
     4    18    17    1
     5    17    16    1
     6    16    15    1
     7    15    12    1
     8    12    13    1
     9    13    14    1
    10    12     1    1
    11     1     2    1
    12     2     3    3
    13     3     4    1
    14     4     5    1
    15     5     6   ar
    16     6     7   ar
    17     7     8   ar
    18     8     9    1
    19     8    10   ar
    20    10    11   ar
    21    11     5   ar
@<TRIPOS>MOLECULE
*****
 21 21 0 0 0
SMALL
GASTEIGER

@<TRIPOS>ATOM
      1 C         137.3194  141.4546  163.0207 C.3     1  UNL1        0.1498
      2 C         137.8644  140.7897  164.2499 C.1     1  UNL1       -0.0727
      3 C         138.4094  140.1248  165.4791 C.1     1  UNL1       -0.0849
      4 C         138.9543  139.4599  166.7083 C.3     1  UNL1        0.1023
      5 C         140.0932  140.0860  167.4573 C.ar    1  UNL1       -0.0092
      6 C         141.5067  139.8219  167.0307 C.ar    1  UNL1       -0.0036
      7 C         142.6456  140.4480  167.7797 C.ar    1  UNL1       -0.0045
      8 C         142.3709  141.3381  168.9553 C.ar    1  UNL1       -0.0219
      9 C         143.5098  141.9642  169.7043 C.3     1  UNL1        0.0310
     10 C         140.9573  141.6022  169.3819 C.ar    1  UNL1       -0.0045
     11 C         139.8185  140.9761  168.6329 C.ar    1  UNL1       -0.0036
     12 N         137.9699  142.6974  162.4894 N.3     1  UNL1       -0.2618
     13 C         138.9056  142.6130  161.3200 C.3     1  UNL1        0.0730
     14 C         140.0185  141.6073  161.3211 C.3     1  UNL1        0.0188
     15 C         137.6847  144.0247  163.1273 C.3     1  UNL1        0.0730
     16 C         138.7633  144.7393  163.8862 C.3     1  UNL1        0.0174
     17 C         138.9257  144.5046  165.3589 C.3     1  UNL1        0.0014
     18 C         139.9057  143.4815  165.8517 C.3     1  UNL1        0.0000
     19 C         140.8557  142.8293  164.8914 C.3     1  UNL1        0.0000
     20 C         142.5687  144.5189  163.9113 C.3     1  UNL1        0.0000
     21 C         142.2648  143.3299  164.7737 C.3     1  UNL1        0.0000
@<TRIPOS>BOND
     1    20    21    1
     2    21    19    1
     3    19    18    1
     4    18    17    1
     5    17    16    1
     6    16    15    1
     7    15    12    1
     8    12    13    1
     9    13    14    1
    10    12     1    1
    11     1     2    1
    12     2     3    3
    13     3     4    1
    14     4     5    1
    15     5     6   ar
    16     6     7   ar
    17     7     8   ar
    18     8     9    1
    19     8    10   ar
    20    10    11   ar
    21    11     5   ar
@<TRIPOS>MOLECULE
*****
 21 21 0 0 0
SMALL
GASTEIGER

@<TRIPOS>ATOM
      1 C         140.4934  140.3525  170.0898 C.3     1  UNL1        0.1498
      2 C         139.7624  139.9822  168.8334 C.1     1  UNL1       -0.0727
      3 C         139.0314  139.6120  167.5769 C.1     1  UNL1       -0.0849
      4 C         138.3005  139.2417  166.3206 C.3     1  UNL1        0.1023
      5 C         139.0592  139.0455  165.0415 C.ar    1  UNL1       -0.0092
      6 C         139.3028  137.6608  164.5189 C.ar    1  UNL1       -0.0036
      7 C         140.0615  137.4646  163.2399 C.ar    1  UNL1       -0.0045
      8 C         140.5765  138.6531  162.4835 C.ar    1  UNL1       -0.0219
      9 C         141.3352  138.4569  161.2045 C.3     1  UNL1        0.0310
     10 C         140.3329  140.0378  163.0061 C.ar    1  UNL1       -0.0045
     11 C         139.5742  140.2340  164.2852 C.ar    1  UNL1       -0.0036
     12 N         141.0111  141.7484  170.2726 N.3     1  UNL1       -0.2618
     13 C         140.0538  142.8778  170.5138 C.3     1  UNL1        0.0730
     14 C         140.3432  144.2389  169.9537 C.3     1  UNL1        0.0188
     15 C         142.4861  142.0150  170.2141 C.3     1  UNL1        0.0730
     16 C         143.2300  141.8362  168.9239 C.3     1  UNL1        0.0174
     17 C         142.5719  142.1905  167.6233 C.3     1  UNL1        0.0014
     18 C         142.4254  141.1532  166.5498 C.3     1  UNL1        0.0000
     19 C         142.7979  139.7273  166.8288 C.3     1  UNL1        0.0000
     20 C         143.6270  138.8097  164.5440 C.3     1  UNL1        0.0000
     21 C         142.7209  138.7041  165.7347 C.3     1  UNL1        0.0000
@<TRIPOS>BOND
     1    20    21    1
     2    21    19    1
     3    19    18    1
     4    18    17    1
     5    17    16    1
     6    16    15    1
     7    15    12    1
     8    12    13    1
     9    13    14    1
    10    12     1    1
    11     1     2    1
    12     2     3    3
    13     3     4    1
    14     4     5    1
    15     5     6   ar
    16     6     7   ar
    17     7     8   ar
    18     8     9    1
    19     8    10   ar
    20    10    11   ar
    21    11     5   ar
@<TRIPOS>MOLECULE
*****
 21 21 0 0 0
SMALL
GASTEIGER

@<TRIPOS>ATOM
      1 C         144.6606  139.1495  163.7294 C.3     1  UNL1        0.1498
      2 C         144.0198  139.1136  165.0851 C.1     1  UNL1       -0.0727
      3 C         143.3789  139.0777  166.4409 C.1     1  UNL1       -0.0849
      4 C         142.7381  139.0418  167.7966 C.3     1  UNL1        0.1023
      5 C         142.1061  140.2798  168.3605 C.ar    1  UNL1       -0.0092
      6 C         140.6587  140.2702  168.7542 C.ar    1  UNL1       -0.0036
      7 C         140.0266  141.5082  169.3180 C.ar    1  UNL1       -0.0045
      8 C         140.8419  142.7557  169.4881 C.ar    1  UNL1       -0.0219
      9 C         140.2099  143.9937  170.0520 C.3     1  UNL1        0.0310
     10 C         142.2893  142.7652  169.0945 C.ar    1  UNL1       -0.0045
     11 C         142.9213  141.5273  168.5306 C.ar    1  UNL1       -0.0036
     12 N         144.8440  140.4589  163.0209 N.3     1  UNL1       -0.2618
     13 C         144.1650  140.7015  161.7056 C.3     1  UNL1        0.0730
     14 C         143.9564  139.5656  160.7484 C.3     1  UNL1        0.0188
     15 C         145.7064  141.5256  163.6278 C.3     1  UNL1        0.0730
     16 C         145.0780  142.7558  164.2123 C.3     1  UNL1        0.0174
     17 C         144.0444  142.6292  165.2920 C.3     1  UNL1        0.0014
     18 C         142.6285  143.0479  165.0276 C.3     1  UNL1        0.0000
     19 C         141.5264  142.0310  165.0642 C.3     1  UNL1        0.0000
     20 C         139.6594  143.7291  165.6814 C.3     1  UNL1        0.0000
     21 C         140.2371  142.3472  165.7625 C.3     1  UNL1        0.0000
@<TRIPOS>BOND
     1    20    21    1
     2    21    19    1
     3    19    18    1
     4    18    17    1
     5    17    16    1
     6    16    15    1
     7    15    12    1
     8    12    13    1
     9    13    14    1
    10    12     1    1
    11     1     2    1
    12     2     3    3
    13     3     4    1
    14     4     5    1
    15     5     6   ar
    16     6     7   ar
    17     7     8   ar
    18     8     9    1
    19     8    10   ar
    20    10    11   ar
    21    11     5   ar
@<TRIPOS>MOLECULE
*****
 21 21 0 0 0
SMALL
GASTEIGER

@<TRIPOS>ATOM
      1 C         144.1776  143.4470  163.4932 C.3     1  UNL1        0.1498
      2 C         142.9119  143.3464  164.2919 C.1     1  UNL1       -0.0727
      3 C         141.6462  143.2457  165.0907 C.1     1  UNL1       -0.0849
      4 C         140.3805  143.1451  165.8894 C.3     1  UNL1        0.1023
      5 C         139.7234  141.8115  166.0885 C.ar    1  UNL1       -0.0092
      6 C         138.8711  141.2257  165.0020 C.ar    1  UNL1       -0.0036
      7 C         138.2139  139.8921  165.2011 C.ar    1  UNL1       -0.0045
      8 C         138.4090  139.1443  166.4867 C.ar    1  UNL1       -0.0219
      9 C         137.7518  137.8107  166.6858 C.3     1  UNL1        0.0310
     10 C         139.2612  139.7301  167.5732 C.ar    1  UNL1       -0.0045
     11 C         139.9184  141.0637  167.3740 C.ar    1  UNL1       -0.0036
     12 N         144.7368  142.2302  162.8175 N.3     1  UNL1       -0.2618
     13 C         144.6277  142.0823  161.3288 C.3     1  UNL1        0.0730
     14 C         143.5726  142.8366  160.5754 C.3     1  UNL1        0.0188
     15 C         145.4050  141.1613  163.6305 C.3     1  UNL1        0.0730
     16 C         144.7627  139.8129  163.7692 C.3     1  UNL1        0.0174
     17 C         143.9790  139.4789  165.0039 C.3     1  UNL1        0.0014
     18 C         142.4815  139.5643  164.9877 C.3     1  UNL1        0.0000
     19 C         141.6576  138.3457  165.2809 C.3     1  UNL1        0.0000
     20 C         140.2550  137.4946  163.2663 C.3     1  UNL1        0.0000
     21 C         141.4130  137.3292  164.2053 C.3     1  UNL1        0.0000
@<TRIPOS>BOND
     1    20    21    1
     2    21    19    1
     3    19    18    1
     4    18    17    1
     5    17    16    1
     6    16    15    1
     7    15    12    1
     8    12    13    1
     9    13    14    1
    10    12     1    1
    11     1     2    1
    12     2     3    3
    13     3     4    1
    14     4     5    1
    15     5     6   ar
    16     6     7   ar
    17     7     8   ar
    18     8     9    1
    19     8    10   ar
    20    10    11   ar
    21    11     5   ar
@<TRIPOS>MOLECULE
*****
 21 21 0 0 0
SMALL
GASTEIGER

@<TRIPOS>ATOM
      1 C         139.9350  140.5674  170.0281 C.3     1  UNL1        0.1498
      2 C         139.3822  140.0768  168.7228 C.1     1  UNL1       -0.0727
      3 C         138.8294  139.5862  167.4175 C.1     1  UNL1       -0.0849
      4 C         138.2766  139.0955  166.1123 C.3     1  UNL1        0.1023
      5 C         139.2026  138.7955  164.9710 C.ar    1  UNL1       -0.0092
      6 C         139.5155  139.8583  163.9598 C.ar    1  UNL1       -0.0036
      7 C         140.4414  139.5583  162.8185 C.ar    1  UNL1       -0.0045
      8 C         141.0545  138.1956  162.6884 C.ar    1  UNL1       -0.0219
      9 C         141.9805  137.8956  161.5471 C.3     1  UNL1        0.0310
     10 C         140.7416  137.1328  163.6996 C.ar    1  UNL1       -0.0045
     11 C         139.8156  137.4328  164.8409 C.ar    1  UNL1       -0.0036
     12 N         141.4101  140.7922  170.1808 N.3     1  UNL1       -0.2618
     13 C         141.9126  141.9299  171.0194 C.3     1  UNL1        0.0730
     14 C         142.7084  143.0332  170.3873 C.3     1  UNL1        0.0188
     15 C         142.3828  139.8793  169.4949 C.3     1  UNL1        0.0730
     16 C         142.8542  140.1928  168.1058 C.3     1  UNL1        0.0174
     17 C         142.4339  139.3244  166.9572 C.3     1  UNL1        0.0014
     18 C         143.4646  138.5688  166.1719 C.3     1  UNL1        0.0000
     19 C         143.7519  138.9499  164.7499 C.3     1  UNL1        0.0000
     20 C         145.2992  140.9105  164.0343 C.3     1  UNL1        0.0000
     21 C         145.1101  139.4609  164.3701 C.3     1  UNL1        0.0000
@<TRIPOS>BOND
     1    20    21    1
     2    21    19    1
     3    19    18    1
     4    18    17    1
     5    17    16    1
     6    16    15    1
     7    15    12    1
     8    12    13    1
     9    13    14    1
    10    12     1    1
    11     1     2    1
    12     2     3    3
    13     3     4    1
    14     4     5    1
    15     5     6   ar
    16     6     7   ar
    17     7     8   ar
    18     8     9    1
    19     8    10   ar
    20    10    11   ar
    21    11     5   ar
@<TRIPOS>MOLECULE
*****
 21 21 0 0 0
SMALL
GASTEIGER

@<TRIPOS>ATOM
      1 C         140.4885  143.5109  169.8899 C.3     1  UNL1        0.1498
      2 C         140.2958  143.3470  168.4115 C.1     1  UNL1       -0.0727
      3 C         140.1031  143.1830  166.9329 C.1     1  UNL1       -0.0849
      4 C         139.9104  143.0190  165.4544 C.3     1  UNL1        0.1023
      5 C         139.7333  141.6496  164.8685 C.ar    1  UNL1       -0.0092
      6 C         138.7067  140.7166  165.4391 C.ar    1  UNL1       -0.0036
      7 C         138.5297  139.3472  164.8532 C.ar    1  UNL1       -0.0045
      8 C         139.3792  138.9108  163.6966 C.ar    1  UNL1       -0.0219
      9 C         139.2021  137.5413  163.1106 C.3     1  UNL1        0.0310
     10 C         140.4058  139.8437  163.1259 C.ar    1  UNL1       -0.0045
     11 C         140.5828  141.2131  163.7119 C.ar    1  UNL1       -0.0036
     12 N         141.4824  142.6540  170.6164 N.3     1  UNL1       -0.2618
     13 C         142.9416  142.9998  170.5764 C.3     1  UNL1        0.0730
     14 C         143.8178  142.4312  169.4999 C.3     1  UNL1        0.0188
     15 C         141.0174  141.4514  171.3827 C.3     1  UNL1        0.0730
     16 C         140.6093  140.2073  170.6507 C.3     1  UNL1        0.0174
     17 C         141.4836  139.6557  169.5638 C.3     1  UNL1        0.0014
     18 C         141.0994  139.8408  168.1257 C.3     1  UNL1        0.0000
     19 C         142.1597  140.0678  167.0894 C.3     1  UNL1        0.0000
     20 C         143.7454  138.1357  166.3804 C.3     1  UNL1        0.0000
     21 C         142.5228  138.9693  166.1347 C.3     1  UNL1        0.0000
@<TRIPOS>BOND
     1    20    21    1
     2    21    19    1
     3    19    18    1
     4    18    17    1
     5    17    16    1
     6    16    15    1
     7    15    12    1
     8    12    13    1
     9    13    14    1
    10    12     1    1
    11     1     2    1
    12     2     3    3
    13     3     4    1
    14     4     5    1
    15     5     6   ar
    16     6     7   ar
    17     7     8   ar
    18     8     9    1
    19     8    10   ar
    20    10    11   ar
    21    11     5   ar
@<TRIPOS>MOLECULE
*****
 21 21 0 0 0
SMALL
GASTEIGER

@<TRIPOS>ATOM
      1 C         138.3842  138.8984  164.3743 C.3     1  UNL1        0.1498
      2 C         138.6695  139.2608  165.8015 C.1     1  UNL1       -0.0727
      3 C         138.9549  139.6233  167.2289 C.1     1  UNL1       -0.0849
      4 C         139.2402  139.9857  168.6562 C.3     1  UNL1        0.1023
      5 C         140.5346  140.6528  169.0163 C.ar    1  UNL1       -0.0092
      6 C         141.6926  139.8312  169.5000 C.ar    1  UNL1       -0.0036
      7 C         142.9869  140.4983  169.8601 C.ar    1  UNL1       -0.0045
      8 C         143.1233  141.9869  169.7364 C.ar    1  UNL1       -0.0219
      9 C         144.4176  142.6540  170.0964 C.3     1  UNL1        0.0310
     10 C         141.9653  142.8085  169.2526 C.ar    1  UNL1       -0.0045
     11 C         140.6709  142.1414  168.8926 C.ar    1  UNL1       -0.0036
     12 N         139.4458  139.0740  163.3292 N.3     1  UNL1       -0.2618
     13 C         139.8045  140.4487  162.8480 C.3     1  UNL1        0.0730
     14 C         140.9628  140.6379  161.9140 C.3     1  UNL1        0.0188
     15 C         140.1488  137.8749  162.7654 C.3     1  UNL1        0.0730
     16 C         141.4226  137.3893  163.3911 C.3     1  UNL1        0.0174
     17 C         141.7392  137.7381  164.8153 C.3     1  UNL1        0.0014
     18 C         142.9504  138.5637  165.1338 C.3     1  UNL1        0.0000
     19 C         142.9086  139.5530  166.2605 C.3     1  UNL1        0.0000
     20 C         141.8655  141.8234  165.5483 C.3     1  UNL1        0.0000
     21 C         143.0563  141.0187  165.9775 C.3     1  UNL1        0.0000
@<TRIPOS>BOND
     1    20    21    1
     2    21    19    1
     3    19    18    1
     4    18    17    1
     5    17    16    1
     6    16    15    1
     7    15    12    1
     8    12    13    1
     9    13    14    1
    10    12     1    1
    11     1     2    1
    12     2     3    3
    13     3     4    1
    14     4     5    1
    15     5     6   ar
    16     6     7   ar
    17     7     8   ar
    18     8     9    1
    19     8    10   ar
    20    10    11   ar
    21    11     5   ar
@<TRIPOS>MOLECULE
*****
 21 21 0 0 0
SMALL
GASTEIGER

@<TRIPOS>ATOM
      1 C         138.8903  137.5483  163.2450 C.3     1  UNL1        0.1498
      2 C         138.8396  138.1580  164.6145 C.1     1  UNL1       -0.0727
      3 C         138.7890  138.7678  165.9841 C.1     1  UNL1       -0.0849
      4 C         138.7384  139.3775  167.3536 C.3     1  UNL1        0.1023
      5 C         139.9313  140.1092  167.8934 C.ar    1  UNL1       -0.0092
      6 C         141.2532  140.0093  167.1915 C.ar    1  UNL1       -0.0036
      7 C         142.4462  140.7410  167.7313 C.ar    1  UNL1       -0.0045
      8 C         142.3173  141.5727  168.9729 C.ar    1  UNL1       -0.0219
      9 C         143.5103  142.3045  169.5127 C.3     1  UNL1        0.0310
     10 C         140.9954  141.6727  169.6747 C.ar    1  UNL1       -0.0045
     11 C         139.8024  140.9409  169.1350 C.ar    1  UNL1       -0.0036
     12 N         139.2996  138.3823  162.0673 N.3     1  UNL1       -0.2618
     13 C         140.5905  138.0970  161.3587 C.3     1  UNL1        0.0730
     14 C         141.8356  137.8235  162.1493 C.3     1  UNL1        0.0188
     15 C         138.4180  139.5015  161.5983 C.3     1  UNL1        0.0730
     16 C         138.5058  140.8493  162.2509 C.3     1  UNL1        0.0174
     17 C         137.3857  141.3348  163.1226 C.3     1  UNL1        0.0014
     18 C         137.6768  142.2389  164.2836 C.3     1  UNL1        0.0000
     19 C         139.0407  142.2427  164.9077 C.3     1  UNL1        0.0000
     20 C         138.8754  144.7673  165.4985 C.3     1  UNL1        0.0000
     21 C         139.7057  143.5432  165.2491 C.3     1  UNL1        0.0000
@<TRIPOS>BOND
     1    20    21    1
     2    21    19    1
     3    19    18    1
     4    18    17    1
     5    17    16    1
     6    16    15    1
     7    15    12    1
     8    12    13    1
     9    13    14    1
    10    12     1    1
    11     1     2    1
    12     2     3    3
    13     3     4    1
    14     4     5    1
    15     5     6   ar
    16     6     7   ar
    17     7     8   ar
    18     8     9    1
    19     8    10   ar
    20    10    11   ar
    21    11     5   ar
