@<TRIPOS>MOLECULE
*****
 35 37 0 0 0
SMALL
GASTEIGER

@<TRIPOS>ATOM
      1 C         143.4184  138.7445  166.2122 C.3     1  UNL1        0.1614
      2 N         143.5136  138.8716  164.7206 N.am    1  UNL1       -0.2958
      3 C         142.4328  138.3040  163.8490 C.2     1  UNL1        0.2475
      4 O         141.2568  137.6092  164.4689 O.2     1  UNL1       -0.2701
      5 H         144.2854  139.3277  164.3137 H       1  UNL1        0.1499
      6 C         142.5281  138.4312  162.3575 C.ar    1  UNL1        0.0725
      7 C         141.2825  138.4113  161.5220 C.ar    1  UNL1        0.0074
      8 C         141.3777  138.5385  160.0304 C.ar    1  UNL1        0.0174
      9 C         142.7186  138.6856  159.3743 C.ar    1  UNL1        0.0888
     10 N         143.9642  138.7055  160.2098 N.ar    1  UNL1       -0.2455
     11 C         143.8690  138.5783  161.7014 C.ar    1  UNL1        0.1030
     12 C         142.8138  138.8128  157.8828 C.3     1  UNL1        0.1878
     13 O         143.4191  137.7049  157.0727 O.3     1  UNL1       -0.3391
     14 C         142.8894  136.3073  157.1995 C.3     1  UNL1        0.2462
     15 C         143.5242  135.1913  156.4239 C.3     1  UNL1        0.4248
     16 F         144.1591  134.0754  155.6482 F       1  UNL1       -0.1674
     17 F         142.5610  134.2179  157.0360 F       1  UNL1       -0.1674
     18 F         144.4874  136.1647  155.8118 F       1  UNL1       -0.1674
     19 C         142.8510  139.8694  167.0262 C.3     1  UNL1        0.3003
     20 F         142.2944  138.8797  168.0062 F       1  UNL1       -0.1977
     21 F         143.4077  140.8592  166.0462 F       1  UNL1       -0.1977
     22 C         140.9446  141.5724  167.4901 C.ar    1  UNL1        0.0041
     23 C         140.3773  142.6974  168.3040 C.ar    1  UNL1       -0.0000
     24 C         141.1492  143.2445  169.4680 C.ar    1  UNL1       -0.0000
     25 C         142.4884  142.6665  169.8181 C.ar    1  UNL1       -0.0002
     26 C         143.0556  141.5415  169.0041 C.ar    1  UNL1        0.0010
     27 C         142.2837  140.9945  167.8401 C.ar    1  UNL1        0.0396
     28 C         138.6289  139.9313  163.9981 C.ar    1  UNL1        0.3201
     29 N         138.3933  139.3879  165.3761 N.ar    1  UNL1       -0.1927
     30 C         139.1652  139.9349  166.5401 C.ar    1  UNL1        0.1051
     31 C         140.1727  141.0254  166.3261 C.ar    1  UNL1        0.0384
     32 C         140.4082  141.5688  164.9480 C.ar    1  UNL1        0.1051
     33 N         139.6363  141.0218  163.7840 N.ar    1  UNL1       -0.1927
     34 C         137.8380  140.1270  161.5310 C.3     1  UNL1        0.2559
     35 O         137.8570  139.3842  162.8341 O.3     1  UNL1       -0.4426
@<TRIPOS>BOND
     1    34    35    1
     2    35    28    1
     3    28    29   ar
     4    29    30   ar
     5    30    31   ar
     6    31    22    1
     7    22    23   ar
     8    23    24   ar
     9    24    25   ar
    10    25    26   ar
    11    26    27   ar
    12    27    19    1
    13    19    20    1
    14    19    21    1
    15    19     1    1
    16     1     2    1
    17     2     3   am
    18     3     4    2
    19     3     6    1
    20     6     7   ar
    21     7     8   ar
    22     8     9   ar
    23     9    12    1
    24    12    13    1
    25    13    14    1
    26    14    15    1
    27    15    16    1
    28    15    17    1
    29    15    18    1
    30     9    10   ar
    31    10    11   ar
    32    31    32   ar
    33    32    33   ar
    34    33    28   ar
    35    27    22   ar
    36    11     6   ar
    37     2     5    1
@<TRIPOS>MOLECULE
*****
 35 37 0 0 0
SMALL
GASTEIGER

@<TRIPOS>ATOM
      1 C         138.6041  140.9259  165.1567 C.3     1  UNL1        0.1614
      2 N         139.2046  141.7589  164.0632 N.am    1  UNL1       -0.2958
      3 C         138.3762  142.1454  162.8739 C.2     1  UNL1        0.2475
      4 O         136.9474  141.6989  162.7780 O.2     1  UNL1       -0.2701
      5 H         140.1423  142.0519  164.1262 H       1  UNL1        0.1499
      6 C         138.9768  142.9783  161.7806 C.ar    1  UNL1        0.0725
      7 C         139.9019  144.1089  162.1210 C.ar    1  UNL1        0.0074
      8 C         140.5024  144.9419  161.0275 C.ar    1  UNL1        0.0174
      9 C         140.1778  144.6443  159.5937 C.ar    1  UNL1        0.0888
     10 N         139.2526  143.5137  159.2532 N.ar    1  UNL1       -0.2455
     11 C         138.6521  142.6808  160.3466 C.ar    1  UNL1        0.1030
     12 C         140.7783  145.4772  158.5003 C.3     1  UNL1        0.1878
     13 O         139.9304  146.4707  157.7626 O.3     1  UNL1       -0.3391
     14 C         139.9079  146.4700  156.2627 C.3     1  UNL1        0.2462
     15 C         138.6339  146.1649  155.5319 C.3     1  UNL1        0.4248
     16 F         137.3600  145.8597  154.8012 F       1  UNL1       -0.1674
     17 F         138.6541  144.7687  156.0799 F       1  UNL1       -0.1674
     18 F         138.6138  147.5611  154.9840 F       1  UNL1       -0.1674
     19 C         139.4141  140.5882  166.3732 C.3     1  UNL1        0.3003
     20 F         139.8605  142.0168  166.4725 F       1  UNL1       -0.1977
     21 F         138.9677  139.1597  166.2739 F       1  UNL1       -0.1977
     22 C         141.6491  139.8060  167.4422 C.ar    1  UNL1        0.0041
     23 C         142.4590  139.4683  168.6587 C.ar    1  UNL1       -0.0000
     24 C         141.8440  139.5751  170.0227 C.ar    1  UNL1       -0.0000
     25 C         140.4190  140.0196  170.1701 C.ar    1  UNL1       -0.0002
     26 C         139.6091  140.3573  168.9536 C.ar    1  UNL1        0.0010
     27 C         140.2241  140.2505  167.5897 C.ar    1  UNL1        0.0396
     28 C         143.4942  139.4856  163.3504 C.ar    1  UNL1        0.3201
     29 N         143.6607  140.7426  164.1519 N.ar    1  UNL1       -0.1927
     30 C         143.0456  140.8493  165.5158 C.ar    1  UNL1        0.1051
     31 C         142.2641  139.6992  166.0783 C.ar    1  UNL1        0.0384
     32 C         142.0977  138.4423  165.2768 C.ar    1  UNL1        0.1051
     33 N         142.7127  138.3355  163.9129 N.ar    1  UNL1       -0.1927
     34 C         143.9595  138.1147  161.1931 C.3     1  UNL1        0.2559
     35 O         144.1092  139.3788  161.9865 O.3     1  UNL1       -0.4426
@<TRIPOS>BOND
     1    34    35    1
     2    35    28    1
     3    28    29   ar
     4    29    30   ar
     5    30    31   ar
     6    31    22    1
     7    22    23   ar
     8    23    24   ar
     9    24    25   ar
    10    25    26   ar
    11    26    27   ar
    12    27    19    1
    13    19    20    1
    14    19    21    1
    15    19     1    1
    16     1     2    1
    17     2     3   am
    18     3     4    2
    19     3     6    1
    20     6     7   ar
    21     7     8   ar
    22     8     9   ar
    23     9    12    1
    24    12    13    1
    25    13    14    1
    26    14    15    1
    27    15    16    1
    28    15    17    1
    29    15    18    1
    30     9    10   ar
    31    10    11   ar
    32    31    32   ar
    33    32    33   ar
    34    33    28   ar
    35    27    22   ar
    36    11     6   ar
    37     2     5    1
@<TRIPOS>MOLECULE
*****
 35 37 0 0 0
SMALL
GASTEIGER

@<TRIPOS>ATOM
      1 C         138.9596  138.2467  164.9104 C.3     1  UNL1        0.1614
      2 N         139.7129  138.0767  163.6244 N.am    1  UNL1       -0.2958
      3 C         139.2178  138.7374  162.3721 C.2     1  UNL1        0.2475
      4 O         137.9693  139.5681  162.4057 O.2     1  UNL1       -0.2701
      5 H         140.5324  137.5315  163.6024 H       1  UNL1        0.1499
      6 C         139.9712  138.5674  161.0863 C.ar    1  UNL1        0.0725
      7 C         141.4597  138.3839  161.1078 C.ar    1  UNL1        0.0074
      8 C         142.2131  138.2139  159.8218 C.ar    1  UNL1        0.0174
      9 C         141.4779  138.2273  158.5145 C.ar    1  UNL1        0.0888
     10 N         139.9893  138.4107  158.4930 N.ar    1  UNL1       -0.2455
     11 C         139.2359  138.5808  159.7788 C.ar    1  UNL1        0.1030
     12 C         142.2313  138.0573  157.2286 C.3     1  UNL1        0.1878
     13 O         143.3577  137.0704  157.1442 O.3     1  UNL1       -0.3391
     14 C         143.3169  135.9712  156.1242 C.3     1  UNL1        0.2462
     15 C         142.9026  134.5875  156.5290 C.3     1  UNL1        0.4248
     16 F         142.4884  133.2039  156.9337 F       1  UNL1       -0.1674
     17 F         144.2821  134.3294  157.0585 F       1  UNL1       -0.1674
     18 F         141.5232  134.8456  155.9994 F       1  UNL1       -0.1674
     19 C         139.3509  139.3299  165.8713 C.3     1  UNL1        0.3003
     20 F         140.7953  139.1083  165.5329 F       1  UNL1       -0.1977
     21 F         137.9065  139.5515  166.2098 F       1  UNL1       -0.1977
     22 C         139.8017  141.8393  166.3712 C.ar    1  UNL1        0.0041
     23 C         140.1930  142.9224  167.3322 C.ar    1  UNL1       -0.0000
     24 C         140.5249  142.5795  168.7543 C.ar    1  UNL1       -0.0000
     25 C         140.4654  141.1534  169.2154 C.ar    1  UNL1       -0.0002
     26 C         140.0741  140.0702  168.2544 C.ar    1  UNL1        0.0010
     27 C         139.7422  140.4132  166.8323 C.ar    1  UNL1        0.0396
     28 C         138.8062  142.8680  162.1050 C.ar    1  UNL1        0.3201
     29 N         140.2070  142.4805  162.4758 N.ar    1  UNL1       -0.1927
     30 C         140.5389  142.1376  163.8979 C.ar    1  UNL1        0.1051
     31 C         139.4699  142.1822  164.9492 C.ar    1  UNL1        0.0384
     32 C         138.0691  142.5697  164.5784 C.ar    1  UNL1        0.1051
     33 N         137.7372  142.9126  163.1563 N.ar    1  UNL1       -0.1927
     34 C         138.4626  142.1372  159.6357 C.3     1  UNL1        0.2559
     35 O         138.4744  143.2110  160.6830 O.3     1  UNL1       -0.4426
@<TRIPOS>BOND
     1    34    35    1
     2    35    28    1
     3    28    29   ar
     4    29    30   ar
     5    30    31   ar
     6    31    22    1
     7    22    23   ar
     8    23    24   ar
     9    24    25   ar
    10    25    26   ar
    11    26    27   ar
    12    27    19    1
    13    19    20    1
    14    19    21    1
    15    19     1    1
    16     1     2    1
    17     2     3   am
    18     3     4    2
    19     3     6    1
    20     6     7   ar
    21     7     8   ar
    22     8     9   ar
    23     9    12    1
    24    12    13    1
    25    13    14    1
    26    14    15    1
    27    15    16    1
    28    15    17    1
    29    15    18    1
    30     9    10   ar
    31    10    11   ar
    32    31    32   ar
    33    32    33   ar
    34    33    28   ar
    35    27    22   ar
    36    11     6   ar
    37     2     5    1
@<TRIPOS>MOLECULE
*****
 35 37 0 0 0
SMALL
GASTEIGER

@<TRIPOS>ATOM
      1 C         141.2328  145.3426  162.9922 C.3     1  UNL1        0.1614
      2 N         140.9698  144.4483  164.1674 N.am    1  UNL1       -0.2958
      3 C         142.0425  143.5233  164.6609 C.2     1  UNL1        0.2475
      4 O         143.3783  143.4925  163.9792 O.2     1  UNL1       -0.2701
      5 H         140.0931  144.4684  164.6149 H       1  UNL1        0.1499
      6 C         141.7795  142.6290  165.8361 C.ar    1  UNL1        0.0725
      7 C         142.9260  142.0827  166.6343 C.ar    1  UNL1        0.0074
      8 C         142.6629  141.1884  167.8095 C.ar    1  UNL1        0.0174
      9 C         141.2534  140.8406  168.1865 C.ar    1  UNL1        0.0888
     10 N         140.1069  141.3869  167.3884 N.ar    1  UNL1       -0.2455
     11 C         140.3699  142.2811  166.2132 C.ar    1  UNL1        0.1030
     12 C         140.9904  139.9463  169.3617 C.3     1  UNL1        0.1878
     13 O         140.5600  140.5366  170.6718 O.3     1  UNL1       -0.3391
     14 C         141.0881  141.8732  171.1018 C.3     1  UNL1        0.2462
     15 C         140.6460  143.1181  170.3913 C.3     1  UNL1        0.4248
     16 F         140.2040  144.3630  169.6808 F       1  UNL1       -0.1674
     17 F         139.2128  142.7248  170.5938 F       1  UNL1       -0.1674
     18 F         142.0793  143.5114  170.1887 F       1  UNL1       -0.1674
     19 C         140.7720  144.9373  161.6234 C.3     1  UNL1        0.3003
     20 F         139.4573  145.6180  161.8645 F       1  UNL1       -0.1977
     21 F         142.0867  144.2567  161.3823 F       1  UNL1       -0.1977
     22 C         139.4852  143.2926  160.0778 C.ar    1  UNL1        0.0041
     23 C         139.0245  142.8874  158.7090 C.ar    1  UNL1       -0.0000
     24 C         139.3898  143.7217  157.5172 C.ar    1  UNL1       -0.0000
     25 C         140.2159  144.9611  157.6940 C.ar    1  UNL1       -0.0002
     26 C         140.6766  145.3663  159.0628 C.ar    1  UNL1        0.0010
     27 C         140.3112  144.5321  160.2546 C.ar    1  UNL1        0.0396
     28 C         138.3892  140.7898  163.6534 C.ar    1  UNL1        0.3201
     29 N         139.6872  140.5515  162.9406 N.ar    1  UNL1       -0.1927
     30 C         140.0526  141.3858  161.7487 C.ar    1  UNL1        0.1051
     31 C         139.1198  142.4584  161.2696 C.ar    1  UNL1        0.0384
     32 C         137.8218  142.6967  161.9824 C.ar    1  UNL1        0.1051
     33 N         137.4564  141.8624  163.1743 N.ar    1  UNL1       -0.1927
     34 C         138.7370  138.6612  165.1017 C.3     1  UNL1        0.2559
     35 O         138.0238  139.9556  164.8452 O.3     1  UNL1       -0.4426
@<TRIPOS>BOND
     1    34    35    1
     2    35    28    1
     3    28    29   ar
     4    29    30   ar
     5    30    31   ar
     6    31    22    1
     7    22    23   ar
     8    23    24   ar
     9    24    25   ar
    10    25    26   ar
    11    26    27   ar
    12    27    19    1
    13    19    20    1
    14    19    21    1
    15    19     1    1
    16     1     2    1
    17     2     3   am
    18     3     4    2
    19     3     6    1
    20     6     7   ar
    21     7     8   ar
    22     8     9   ar
    23     9    12    1
    24    12    13    1
    25    13    14    1
    26    14    15    1
    27    15    16    1
    28    15    17    1
    29    15    18    1
    30     9    10   ar
    31    10    11   ar
    32    31    32   ar
    33    32    33   ar
    34    33    28   ar
    35    27    22   ar
    36    11     6   ar
    37     2     5    1
@<TRIPOS>MOLECULE
*****
 35 37 0 0 0
SMALL
GASTEIGER

@<TRIPOS>ATOM
      1 C         142.6965  142.7137  165.2942 C.3     1  UNL1        0.1614
      2 N         142.4955  142.2222  163.8913 N.am    1  UNL1       -0.2958
      3 C         143.2791  141.0458  163.3893 C.2     1  UNL1        0.2475
      4 O         144.2638  140.3610  164.2900 O.2     1  UNL1       -0.2701
      5 H         141.8492  142.6717  163.3001 H       1  UNL1        0.1499
      6 C         143.0781  140.5544  161.9864 C.ar    1  UNL1        0.0725
      7 C         141.8741  140.9893  161.2046 C.ar    1  UNL1        0.0074
      8 C         141.6731  140.4978  159.8017 C.ar    1  UNL1        0.0174
      9 C         142.6760  139.5714  159.1807 C.ar    1  UNL1        0.0888
     10 N         143.8800  139.1364  159.9625 N.ar    1  UNL1       -0.2455
     11 C         144.0811  139.6279  161.3653 C.ar    1  UNL1        0.1030
     12 C         142.4750  139.0799  157.7779 C.3     1  UNL1        0.1878
     13 O         143.5104  138.2067  157.1334 O.3     1  UNL1       -0.3391
     14 C         143.1109  137.2340  156.0636 C.3     1  UNL1        0.2462
     15 C         143.6241  135.8251  156.1013 C.3     1  UNL1        0.4248
     16 F         144.1374  134.4161  156.1391 F       1  UNL1       -0.1674
     17 F         142.4444  135.4175  156.9333 F       1  UNL1       -0.1674
     18 F         144.8039  136.2326  155.2694 F       1  UNL1       -0.1674
     19 C         141.8254  142.1988  166.4014 C.3     1  UNL1        0.3003
     20 F         142.9778  141.4023  166.9376 F       1  UNL1       -0.1977
     21 F         140.6730  142.9952  165.8652 F       1  UNL1       -0.1977
     22 C         140.1138  140.4600  167.2943 C.ar    1  UNL1        0.0041
     23 C         139.2427  139.9451  168.4015 C.ar    1  UNL1       -0.0000
     24 C         139.2119  140.6540  169.7230 C.ar    1  UNL1       -0.0000
     25 C         140.0522  141.8778  169.9374 C.ar    1  UNL1       -0.0002
     26 C         140.9234  142.3927  168.8302 C.ar    1  UNL1        0.0010
     27 C         140.9542  141.6838  167.5086 C.ar    1  UNL1        0.0396
     28 C         140.2061  138.3332  163.3296 C.ar    1  UNL1        0.3201
     29 N         141.2956  138.0968  164.3331 N.ar    1  UNL1       -0.1927
     30 C         141.2649  138.8057  165.6546 C.ar    1  UNL1        0.1051
     31 C         140.1446  139.7511  165.9727 C.ar    1  UNL1        0.0384
     32 C         139.0551  139.9875  164.9692 C.ar    1  UNL1        0.1051
     33 N         139.0858  139.2786  163.6477 N.ar    1  UNL1       -0.1927
     34 C         139.2823  138.0216  160.9214 C.3     1  UNL1        0.2559
     35 O         140.2369  137.6243  162.0081 O.3     1  UNL1       -0.4426
@<TRIPOS>BOND
     1    34    35    1
     2    35    28    1
     3    28    29   ar
     4    29    30   ar
     5    30    31   ar
     6    31    22    1
     7    22    23   ar
     8    23    24   ar
     9    24    25   ar
    10    25    26   ar
    11    26    27   ar
    12    27    19    1
    13    19    20    1
    14    19    21    1
    15    19     1    1
    16     1     2    1
    17     2     3   am
    18     3     4    2
    19     3     6    1
    20     6     7   ar
    21     7     8   ar
    22     8     9   ar
    23     9    12    1
    24    12    13    1
    25    13    14    1
    26    14    15    1
    27    15    16    1
    28    15    17    1
    29    15    18    1
    30     9    10   ar
    31    10    11   ar
    32    31    32   ar
    33    32    33   ar
    34    33    28   ar
    35    27    22   ar
    36    11     6   ar
    37     2     5    1
@<TRIPOS>MOLECULE
*****
 35 37 0 0 0
SMALL
GASTEIGER

@<TRIPOS>ATOM
      1 C         144.1565  139.2454  164.7490 C.3     1  UNL1        0.1614
      2 N         143.7178  138.8040  163.3841 N.am    1  UNL1       -0.2958
      3 C         144.1552  139.5706  162.1713 C.2     1  UNL1        0.2475
      4 O         145.0313  140.7787  162.3232 O.2     1  UNL1       -0.2701
      5 H         143.1429  138.0111  163.2844 H       1  UNL1        0.1499
      6 C         143.7165  139.1291  160.8065 C.ar    1  UNL1        0.0725
      7 C         143.7797  140.0854  159.6526 C.ar    1  UNL1        0.0074
      8 C         143.3409  139.6439  158.2878 C.ar    1  UNL1        0.0174
      9 C         142.8391  138.2461  158.0770 C.ar    1  UNL1        0.0888
     10 N         142.7760  137.2899  159.2309 N.ar    1  UNL1       -0.2455
     11 C         143.2147  137.7313  160.5957 C.ar    1  UNL1        0.1030
     12 C         142.4004  137.8047  156.7122 C.3     1  UNL1        0.1878
     13 O         142.1460  136.3518  156.4397 O.3     1  UNL1       -0.3391
     14 C         143.2772  135.3683  156.4983 C.3     1  UNL1        0.2462
     15 C         143.0083  133.9363  156.8548 C.3     1  UNL1        0.4248
     16 F         142.7394  132.5043  157.2113 F       1  UNL1       -0.1674
     17 F         142.4498  133.6997  155.4829 F       1  UNL1       -0.1674
     18 F         143.5667  134.1730  158.2267 F       1  UNL1       -0.1674
     19 C         143.1373  139.4879  165.8224 C.3     1  UNL1        0.3003
     20 F         143.1052  140.9439  165.4630 F       1  UNL1       -0.1977
     21 F         143.1694  138.0320  166.1818 F       1  UNL1       -0.1977
     22 C         140.6559  139.6157  166.5815 C.ar    1  UNL1        0.0041
     23 C         139.6367  139.8582  167.6550 C.ar    1  UNL1       -0.0000
     24 C         140.0797  140.2154  169.0429 C.ar    1  UNL1       -0.0000
     25 C         141.5418  140.3301  169.3573 C.ar    1  UNL1       -0.0002
     26 C         142.5610  140.0876  168.2838 C.ar    1  UNL1        0.0010
     27 C         142.1180  139.7304  166.8959 C.ar    1  UNL1        0.0396
     28 C         139.3270  138.5441  162.4179 C.ar    1  UNL1        0.3201
     29 N         139.5559  137.4641  163.4334 N.ar    1  UNL1       -0.1927
     30 C         139.9989  137.8213  164.8213 C.ar    1  UNL1        0.1051
     31 C         140.2129  139.2585  165.1937 C.ar    1  UNL1        0.0384
     32 C         139.9839  140.3385  164.1782 C.ar    1  UNL1        0.1051
     33 N         139.5409  139.9813  162.7903 N.ar    1  UNL1       -0.1927
     34 C         139.5341  138.8367  159.8447 C.3     1  UNL1        0.2559
     35 O         138.8840  138.1869  161.0301 O.3     1  UNL1       -0.4426
@<TRIPOS>BOND
     1    34    35    1
     2    35    28    1
     3    28    29   ar
     4    29    30   ar
     5    30    31   ar
     6    31    22    1
     7    22    23   ar
     8    23    24   ar
     9    24    25   ar
    10    25    26   ar
    11    26    27   ar
    12    27    19    1
    13    19    20    1
    14    19    21    1
    15    19     1    1
    16     1     2    1
    17     2     3   am
    18     3     4    2
    19     3     6    1
    20     6     7   ar
    21     7     8   ar
    22     8     9   ar
    23     9    12    1
    24    12    13    1
    25    13    14    1
    26    14    15    1
    27    15    16    1
    28    15    17    1
    29    15    18    1
    30     9    10   ar
    31    10    11   ar
    32    31    32   ar
    33    32    33   ar
    34    33    28   ar
    35    27    22   ar
    36    11     6   ar
    37     2     5    1
@<TRIPOS>MOLECULE
*****
 35 37 0 0 0
SMALL
GASTEIGER

@<TRIPOS>ATOM
      1 C         143.4988  141.0614  164.8889 C.3     1  UNL1        0.1614
      2 N         143.0474  141.6537  163.5868 N.am    1  UNL1       -0.2958
      3 C         144.0599  142.1477  162.5964 C.2     1  UNL1        0.2475
      4 O         145.5238  142.0494  162.9082 O.2     1  UNL1       -0.2701
      5 H         142.0865  141.7183  163.3822 H       1  UNL1        0.1499
      6 C         143.6084  142.7400  161.2944 C.ar    1  UNL1        0.0725
      7 C         144.1527  142.2106  160.0008 C.ar    1  UNL1        0.0074
      8 C         143.7012  142.8029  158.6987 C.ar    1  UNL1        0.0174
      9 C         142.7054  143.9247  158.6903 C.ar    1  UNL1        0.0888
     10 N         142.1611  144.4541  159.9839 N.ar    1  UNL1       -0.2455
     11 C         142.6126  143.8618  161.2860 C.ar    1  UNL1        0.1030
     12 C         142.2540  144.5170  157.3883 C.3     1  UNL1        0.1878
     13 O         140.8032  144.8289  157.1692 O.3     1  UNL1       -0.3391
     14 C         140.3564  146.2532  157.0212 C.3     1  UNL1        0.2462
     15 C         139.2754  146.6021  156.0415 C.3     1  UNL1        0.4248
     16 F         138.1944  146.9510  155.0618 F       1  UNL1       -0.1674
     17 F         138.8692  147.7612  156.9025 F       1  UNL1       -0.1674
     18 F         139.6816  145.4429  155.1805 F       1  UNL1       -0.1674
     19 C         142.9587  141.5946  166.1827 C.3     1  UNL1        0.3003
     20 F         142.6358  140.1977  166.6235 F       1  UNL1       -0.1977
     21 F         143.2816  142.9915  165.7418 F       1  UNL1       -0.1977
     22 C         140.9730  142.5134  167.5837 C.ar    1  UNL1        0.0041
     23 C         140.4330  143.0466  168.8775 C.ar    1  UNL1       -0.0000
     24 C         141.3385  143.1943  170.0642 C.ar    1  UNL1       -0.0000
     25 C         142.7842  142.8088  169.9570 C.ar    1  UNL1       -0.0002
     26 C         143.3242  142.2756  168.6632 C.ar    1  UNL1        0.0010
     27 C         142.4186  142.1279  167.4765 C.ar    1  UNL1        0.0396
     28 C         138.2563  142.0702  164.0238 C.ar    1  UNL1        0.3201
     29 N         138.4818  140.9077  164.9445 N.ar    1  UNL1       -0.1927
     30 C         139.3874  141.0554  166.1311 C.ar    1  UNL1        0.1051
     31 C         140.0674  142.3657  166.3971 C.ar    1  UNL1        0.0384
     32 C         139.8419  143.5282  165.4764 C.ar    1  UNL1        0.1051
     33 N         138.9363  143.3805  164.2898 N.ar    1  UNL1       -0.1927
     34 C         137.8053  141.1427  161.6392 C.3     1  UNL1        0.2559
     35 O         137.3507  141.9225  162.8372 O.3     1  UNL1       -0.4426
@<TRIPOS>BOND
     1    34    35    1
     2    35    28    1
     3    28    29   ar
     4    29    30   ar
     5    30    31   ar
     6    31    22    1
     7    22    23   ar
     8    23    24   ar
     9    24    25   ar
    10    25    26   ar
    11    26    27   ar
    12    27    19    1
    13    19    20    1
    14    19    21    1
    15    19     1    1
    16     1     2    1
    17     2     3   am
    18     3     4    2
    19     3     6    1
    20     6     7   ar
    21     7     8   ar
    22     8     9   ar
    23     9    12    1
    24    12    13    1
    25    13    14    1
    26    14    15    1
    27    15    16    1
    28    15    17    1
    29    15    18    1
    30     9    10   ar
    31    10    11   ar
    32    31    32   ar
    33    32    33   ar
    34    33    28   ar
    35    27    22   ar
    36    11     6   ar
    37     2     5    1
@<TRIPOS>MOLECULE
*****
 35 37 0 0 0
SMALL
GASTEIGER

@<TRIPOS>ATOM
      1 C         143.3407  138.9211  166.3682 C.3     1  UNL1        0.1614
      2 N         143.5352  139.1614  164.9004 N.am    1  UNL1       -0.2958
      3 C         142.4673  138.7598  163.9266 C.2     1  UNL1        0.2475
      4 O         141.2047  138.1180  164.4207 O.2     1  UNL1       -0.2701
      5 H         144.3639  139.5826  164.5761 H       1  UNL1        0.1499
      6 C         142.6618  139.0001  162.4589 C.ar    1  UNL1        0.0725
      7 C         141.6000  139.7037  161.6668 C.ar    1  UNL1        0.0074
      8 C         141.7946  139.9439  160.1990 C.ar    1  UNL1        0.0174
      9 C         143.0510  139.4806  159.5233 C.ar    1  UNL1        0.0888
     10 N         144.1129  138.7769  160.3154 N.ar    1  UNL1       -0.2455
     11 C         143.9183  138.5367  161.7831 C.ar    1  UNL1        0.1030
     12 C         143.2456  139.7208  158.0555 C.3     1  UNL1        0.1878
     13 O         144.6205  139.9767  157.5132 O.3     1  UNL1       -0.3391
     14 C         145.1699  141.3723  157.4900 C.3     1  UNL1        0.2462
     15 C         144.3267  142.5182  157.9654 C.3     1  UNL1        0.4248
     16 F         143.4836  143.6641  158.4409 F       1  UNL1       -0.1674
     17 F         143.7932  142.7022  156.5757 F       1  UNL1       -0.1674
     18 F         144.8603  142.3342  159.3552 F       1  UNL1       -0.1674
     19 C         142.8299  140.0239  167.2475 C.3     1  UNL1        0.3003
     20 F         143.3788  141.0407  166.2910 F       1  UNL1       -0.1977
     21 F         142.2811  139.0071  168.2039 F       1  UNL1       -0.1977
     22 C         141.0029  141.7789  167.8236 C.ar    1  UNL1        0.0041
     23 C         140.4922  142.8816  168.7029 C.ar    1  UNL1       -0.0000
     24 C         141.2977  143.3320  169.8854 C.ar    1  UNL1       -0.0000
     25 C         142.6140  142.6797  170.1886 C.ar    1  UNL1       -0.0002
     26 C         143.1247  141.5770  169.3093 C.ar    1  UNL1        0.0010
     27 C         142.3192  141.1266  168.1268 C.ar    1  UNL1        0.0396
     28 C         138.5864  140.4279  164.2760 C.ar    1  UNL1        0.3201
     29 N         138.4372  139.7294  165.5950 N.ar    1  UNL1       -0.1927
     30 C         139.2427  140.1798  166.7776 C.ar    1  UNL1        0.1051
     31 C         140.1974  141.3286  166.6410 C.ar    1  UNL1        0.0384
     32 C         140.3467  142.0270  165.3220 C.ar    1  UNL1        0.1051
     33 N         139.5411  141.5767  164.1395 N.ar    1  UNL1       -0.1927
     34 C         138.1322  138.7006  162.3892 C.3     1  UNL1        0.2559
     35 O         137.7809  139.9775  163.0935 O.3     1  UNL1       -0.4426
@<TRIPOS>BOND
     1    34    35    1
     2    35    28    1
     3    28    29   ar
     4    29    30   ar
     5    30    31   ar
     6    31    22    1
     7    22    23   ar
     8    23    24   ar
     9    24    25   ar
    10    25    26   ar
    11    26    27   ar
    12    27    19    1
    13    19    20    1
    14    19    21    1
    15    19     1    1
    16     1     2    1
    17     2     3   am
    18     3     4    2
    19     3     6    1
    20     6     7   ar
    21     7     8   ar
    22     8     9   ar
    23     9    12    1
    24    12    13    1
    25    13    14    1
    26    14    15    1
    27    15    16    1
    28    15    17    1
    29    15    18    1
    30     9    10   ar
    31    10    11   ar
    32    31    32   ar
    33    32    33   ar
    34    33    28   ar
    35    27    22   ar
    36    11     6   ar
    37     2     5    1
@<TRIPOS>MOLECULE
*****
 35 37 0 0 0
SMALL
GASTEIGER

@<TRIPOS>ATOM
      1 C         143.4196  140.9360  164.8410 C.3     1  UNL1        0.1614
      2 N         143.0558  140.1908  163.5911 N.am    1  UNL1       -0.2958
      3 C         143.9863  140.2001  162.4146 C.2     1  UNL1        0.2475
      4 O         145.2805  140.9547  162.4880 O.2     1  UNL1       -0.2701
      5 H         142.2063  139.6955  163.5429 H       1  UNL1        0.1499
      6 C         143.6224  139.4549  161.1648 C.ar    1  UNL1        0.0725
      7 C         143.1481  138.0344  161.2497 C.ar    1  UNL1        0.0074
      8 C         142.7843  137.2891  159.9998 C.ar    1  UNL1        0.0174
      9 C         142.8947  137.9644  158.6650 C.ar    1  UNL1        0.0888
     10 N         143.3690  139.3849  158.5800 N.ar    1  UNL1       -0.2455
     11 C         143.7328  140.1302  159.8299 C.ar    1  UNL1        0.1030
     12 C         142.5309  137.2192  157.4151 C.3     1  UNL1        0.1878
     13 O         143.3008  135.9934  157.0217 O.3     1  UNL1       -0.3391
     14 C         142.6379  134.9193  156.2113 C.3     1  UNL1        0.2462
     15 C         142.6692  133.4960  156.6839 C.3     1  UNL1        0.4248
     16 F         142.7006  132.0728  157.1564 F       1  UNL1       -0.1674
     17 F         141.7827  133.0972  155.5415 F       1  UNL1       -0.1674
     18 F         143.5558  133.8949  157.8262 F       1  UNL1       -0.1674
     19 C         142.6812  140.6643  166.1181 C.3     1  UNL1        0.3003
     20 F         142.7716  142.1173  166.4795 F       1  UNL1       -0.1977
     21 F         142.5907  139.2114  165.7566 F       1  UNL1       -0.1977
     22 C         140.4476  140.5067  167.4358 C.ar    1  UNL1        0.0041
     23 C         139.7092  140.2349  168.7129 C.ar    1  UNL1       -0.0000
     24 C         140.4659  139.8490  169.9492 C.ar    1  UNL1       -0.0000
     25 C         141.9610  139.7348  169.9085 C.ar    1  UNL1       -0.0002
     26 C         142.6994  140.0066  168.6315 C.ar    1  UNL1        0.0010
     27 C         141.9427  140.3925  167.3951 C.ar    1  UNL1        0.0396
     28 C         138.1776  141.6645  163.7268 C.ar    1  UNL1        0.3201
     29 N         138.7827  142.7254  164.5977 N.ar    1  UNL1       -0.1927
     30 C         139.5393  142.3394  165.8340 C.ar    1  UNL1        0.1051
     31 C         139.6910  140.8926  166.1995 C.ar    1  UNL1        0.0384
     32 C         139.0859  139.8317  165.3287 C.ar    1  UNL1        0.1051
     33 N         138.3293  140.2176  164.0923 N.ar    1  UNL1       -0.1927
     34 C         138.1637  142.3990  161.2348 C.3     1  UNL1        0.2559
     35 O         137.4210  142.0504  162.4905 O.3     1  UNL1       -0.4426
@<TRIPOS>BOND
     1    34    35    1
     2    35    28    1
     3    28    29   ar
     4    29    30   ar
     5    30    31   ar
     6    31    22    1
     7    22    23   ar
     8    23    24   ar
     9    24    25   ar
    10    25    26   ar
    11    26    27   ar
    12    27    19    1
    13    19    20    1
    14    19    21    1
    15    19     1    1
    16     1     2    1
    17     2     3   am
    18     3     4    2
    19     3     6    1
    20     6     7   ar
    21     7     8   ar
    22     8     9   ar
    23     9    12    1
    24    12    13    1
    25    13    14    1
    26    14    15    1
    27    15    16    1
    28    15    17    1
    29    15    18    1
    30     9    10   ar
    31    10    11   ar
    32    31    32   ar
    33    32    33   ar
    34    33    28   ar
    35    27    22   ar
    36    11     6   ar
    37     2     5    1
