@<TRIPOS>MOLECULE
*****
 16 17 0 0 0
SMALL
GASTEIGER

@<TRIPOS>ATOM
      1 C         140.3252  142.0432  166.1544 C.3     1  UNL1        0.0344
      2 C         140.7886  143.1067  165.2036 C.ar    1  UNL1        0.0186
      3 C         139.9853  144.2854  164.7395 C.ar    1  UNL1        0.1769
      4 O         140.8370  145.0854  163.7990 O.2     1  UNL1       -0.4509
      5 C         142.1667  144.4011  163.6818 C.ar    1  UNL1        0.1452
      6 C         143.4008  144.7336  162.8968 C.ar    1  UNL1        0.0383
      7 C         144.6051  143.8432  162.9798 C.ar    1  UNL1        0.0145
      8 C         144.5752  142.6203  163.8479 C.ar    1  UNL1        0.0579
      9 CL        145.7795  141.7298  163.9309 Cl      1  UNL1       -0.0822
     10 C         143.3410  142.2878  164.6329 C.ar    1  UNL1        0.0142
     11 C         142.1368  143.1782  164.5499 C.ar    1  UNL1        0.0345
     12 C         138.5775  144.6075  165.1448 C.2     1  UNL1        0.2221
     13 O         138.3219  145.5362  166.2946 O.2     1  UNL1       -0.2870
     14 C         137.4252  144.0009  164.4003 C.3     1  UNL1        0.1773
     15 C         137.6112  143.5234  162.9905 C.1     1  UNL1        0.0816
     16 N         137.7971  143.0459  161.5808 N.1     1  UNL1       -0.1954
@<TRIPOS>BOND
     1     1     2    1
     2     2     3   ar
     3     3    12    1
     4    12    13    2
     5    12    14    1
     6    14    15    1
     7    15    16    3
     8     3     4   ar
     9     4     5   ar
    10     5     6   ar
    11     6     7   ar
    12     7     8   ar
    13     8     9    1
    14     8    10   ar
    15    10    11   ar
    16    11     2   ar
    17    11     5   ar
@<TRIPOS>MOLECULE
*****
 16 17 0 0 0
SMALL
GASTEIGER

@<TRIPOS>ATOM
      1 C         143.2928  142.4504  168.9789 C.3     1  UNL1        0.0344
      2 C         142.9515  141.4666  167.8992 C.ar    1  UNL1        0.0186
      3 C         142.4006  140.0868  168.1057 C.ar    1  UNL1        0.1769
      4 O         142.2098  139.4574  166.7576 O.2     1  UNL1       -0.4509
      5 C         142.6427  140.4482  165.7179 C.ar    1  UNL1        0.1452
      6 C         142.6788  140.3801  164.2199 C.ar    1  UNL1        0.0383
      7 C         143.1732  141.5537  163.4275 C.ar    1  UNL1        0.0145
      8 C         143.6316  142.7955  164.1331 C.ar    1  UNL1        0.0579
      9 CL        144.1261  143.9692  163.3406 Cl      1  UNL1       -0.0822
     10 C         143.5956  142.8637  165.6311 C.ar    1  UNL1        0.0142
     11 C         143.1011  141.6900  166.4235 C.ar    1  UNL1        0.0345
     12 C         142.0943  139.4485  169.4281 C.2     1  UNL1        0.2221
     13 O         143.0753  138.4974  170.0470 O.2     1  UNL1       -0.2870
     14 C         140.8070  139.7613  170.1317 C.3     1  UNL1        0.1773
     15 C         140.7244  140.9403  171.0553 C.1     1  UNL1        0.0816
     16 N         140.6417  142.1193  171.9790 N.1     1  UNL1       -0.1954
@<TRIPOS>BOND
     1     1     2    1
     2     2     3   ar
     3     3    12    1
     4    12    13    2
     5    12    14    1
     6    14    15    1
     7    15    16    3
     8     3     4   ar
     9     4     5   ar
    10     5     6   ar
    11     6     7   ar
    12     7     8   ar
    13     8     9    1
    14     8    10   ar
    15    10    11   ar
    16    11     2   ar
    17    11     5   ar
@<TRIPOS>MOLECULE
*****
 16 17 0 0 0
SMALL
GASTEIGER

@<TRIPOS>ATOM
      1 C         142.5586  140.1805  168.1694 C.3     1  UNL1        0.0344
      2 C         141.1933  139.8440  167.6471 C.ar    1  UNL1        0.0186
      3 C         139.8959  140.0577  168.3689 C.ar    1  UNL1        0.1769
      4 O         138.7865  139.5805  167.4792 O.2     1  UNL1       -0.4509
      5 C         139.3983  139.0719  166.2076 C.ar    1  UNL1        0.1452
      6 C         138.7931  138.4816  164.9686 C.ar    1  UNL1        0.0383
      7 C         139.6753  138.0541  163.8334 C.ar    1  UNL1        0.0145
      8 C         141.1629  138.2170  163.9371 C.ar    1  UNL1        0.0579
      9 CL        142.0451  137.7895  162.8018 Cl      1  UNL1       -0.0822
     10 C         141.7681  138.8073  165.1761 C.ar    1  UNL1        0.0142
     11 C         140.8858  139.2348  166.3113 C.ar    1  UNL1        0.0345
     12 C         139.7360  140.6453  169.7397 C.2     1  UNL1        0.2221
     13 O         139.4796  139.7490  170.9148 O.2     1  UNL1       -0.2870
     14 C         139.8324  142.1294  169.9355 C.3     1  UNL1        0.1773
     15 C         141.1467  142.7541  170.2990 C.1     1  UNL1        0.0816
     16 N         142.4611  143.3788  170.6626 N.1     1  UNL1       -0.1954
@<TRIPOS>BOND
     1     1     2    1
     2     2     3   ar
     3     3    12    1
     4    12    13    2
     5    12    14    1
     6    14    15    1
     7    15    16    3
     8     3     4   ar
     9     4     5   ar
    10     5     6   ar
    11     6     7   ar
    12     7     8   ar
    13     8     9    1
    14     8    10   ar
    15    10    11   ar
    16    11     2   ar
    17    11     5   ar
@<TRIPOS>MOLECULE
*****
 16 17 0 0 0
SMALL
GASTEIGER

@<TRIPOS>ATOM
      1 C         141.0984  142.8551  167.8758 C.3     1  UNL1        0.0344
      2 C         140.4987  141.6456  167.2222 C.ar    1  UNL1        0.0186
      3 C         140.6939  140.2223  167.6537 C.ar    1  UNL1        0.1769
      4 O         139.9143  139.3440  166.7204 O.2     1  UNL1       -0.4509
      5 C         139.2374  140.2245  165.7121 C.ar    1  UNL1        0.1452
      6 C         138.3389  139.9148  164.5517 C.ar    1  UNL1        0.0383
      7 C         137.8015  141.0275  163.7014 C.ar    1  UNL1        0.0145
      8 C         138.1627  142.4499  164.0116 C.ar    1  UNL1        0.0579
      9 CL        137.6252  143.5627  163.1612 Cl      1  UNL1       -0.0822
     10 C         139.0612  142.7597  165.1720 C.ar    1  UNL1        0.0142
     11 C         139.5986  141.6470  166.0222 C.ar    1  UNL1        0.0345
     12 C         141.5229  139.7587  168.8146 C.2     1  UNL1        0.2221
     13 O         142.9599  139.3820  168.6070 O.2     1  UNL1       -0.2870
     14 C         140.9150  139.6717  170.1830 C.3     1  UNL1        0.1773
     15 C         140.7789  140.9069  171.0231 C.1     1  UNL1        0.0816
     16 N         140.6427  142.1421  171.8632 N.1     1  UNL1       -0.1954
@<TRIPOS>BOND
     1     1     2    1
     2     2     3   ar
     3     3    12    1
     4    12    13    2
     5    12    14    1
     6    14    15    1
     7    15    16    3
     8     3     4   ar
     9     4     5   ar
    10     5     6   ar
    11     6     7   ar
    12     7     8   ar
    13     8     9    1
    14     8    10   ar
    15    10    11   ar
    16    11     2   ar
    17    11     5   ar
@<TRIPOS>MOLECULE
*****
 16 17 0 0 0
SMALL
GASTEIGER

@<TRIPOS>ATOM
      1 C         143.1898  138.8228  166.9216 C.3     1  UNL1        0.0344
      2 C         142.0162  139.7502  166.8098 C.ar    1  UNL1        0.0186
      3 C         141.8092  141.0093  167.5984 C.ar    1  UNL1        0.1769
      4 O         140.5086  141.6186  167.1657 O.2     1  UNL1       -0.4509
      5 C         139.9118  140.7361  166.1098 C.ar    1  UNL1        0.1452
      6 C         138.6403  140.8347  165.3201 C.ar    1  UNL1        0.0383
      7 C         138.3006  139.7787  164.3105 C.ar    1  UNL1        0.0145
      8 C         139.2324  138.6239  164.0906 C.ar    1  UNL1        0.0579
      9 CL        138.8927  137.5678  163.0810 Cl      1  UNL1       -0.0822
     10 C         140.5039  138.5253  164.8802 C.ar    1  UNL1        0.0142
     11 C         140.8436  139.5813  165.8898 C.ar    1  UNL1        0.0345
     12 C         142.7394  141.5621  168.6372 C.2     1  UNL1        0.2221
     13 O         143.6966  142.6600  168.2788 O.2     1  UNL1       -0.2870
     14 C         142.7126  141.0169  170.0343 C.3     1  UNL1        0.1773
     15 C         141.7006  141.5247  171.0182 C.1     1  UNL1        0.0816
     16 N         140.6886  142.0325  172.0021 N.1     1  UNL1       -0.1954
@<TRIPOS>BOND
     1     1     2    1
     2     2     3   ar
     3     3    12    1
     4    12    13    2
     5    12    14    1
     6    14    15    1
     7    15    16    3
     8     3     4   ar
     9     4     5   ar
    10     5     6   ar
    11     6     7   ar
    12     7     8   ar
    13     8     9    1
    14     8    10   ar
    15    10    11   ar
    16    11     2   ar
    17    11     5   ar
@<TRIPOS>MOLECULE
*****
 16 17 0 0 0
SMALL
GASTEIGER

@<TRIPOS>ATOM
      1 C         142.7125  142.1006  166.6125 C.3     1  UNL1        0.0344
      2 C         141.6598  141.2611  167.2735 C.ar    1  UNL1        0.0186
      3 C         141.6092  140.8935  168.7269 C.ar    1  UNL1        0.1769
      4 O         140.3910  140.0469  168.9488 O.2     1  UNL1       -0.4509
      5 C         139.6886  139.8913  167.6325 C.ar    1  UNL1        0.1452
      6 C         138.4364  139.1633  167.2430 C.ar    1  UNL1        0.0383
      7 C         137.9683  139.1856  165.8181 C.ar    1  UNL1        0.0145
      8 C         138.7524  139.9360  164.7828 C.ar    1  UNL1        0.0579
      9 CL        138.2843  139.9584  163.3578 Cl      1  UNL1       -0.0822
     10 C         140.0047  140.6641  165.1723 C.ar    1  UNL1        0.0142
     11 C         140.4728  140.6417  166.5971 C.ar    1  UNL1        0.0345
     12 C         142.6025  141.3009  169.7745 C.2     1  UNL1        0.2221
     13 O         143.5358  140.2827  170.3595 O.2     1  UNL1       -0.2870
     14 C         142.6626  142.7265  170.2370 C.3     1  UNL1        0.1773
     15 C         141.4355  143.5871  170.1762 C.1     1  UNL1        0.0816
     16 N         140.2084  144.4476  170.1154 N.1     1  UNL1       -0.1954
@<TRIPOS>BOND
     1     1     2    1
     2     2     3   ar
     3     3    12    1
     4    12    13    2
     5    12    14    1
     6    14    15    1
     7    15    16    3
     8     3     4   ar
     9     4     5   ar
    10     5     6   ar
    11     6     7   ar
    12     7     8   ar
    13     8     9    1
    14     8    10   ar
    15    10    11   ar
    16    11     2   ar
    17    11     5   ar
@<TRIPOS>MOLECULE
*****
 16 17 0 0 0
SMALL
GASTEIGER

@<TRIPOS>ATOM
      1 C         141.3602  142.6010  167.5452 C.3     1  UNL1        0.0344
      2 C         140.4054  141.4837  167.8449 C.ar    1  UNL1        0.0186
      3 C         139.8738  141.1176  169.1989 C.ar    1  UNL1        0.1769
      4 O         138.9545  139.9438  169.0341 O.2     1  UNL1       -0.4509
      5 C         138.9179  139.5845  167.5782 C.ar    1  UNL1        0.1452
      6 C         138.1839  138.5137  166.8268 C.ar    1  UNL1        0.0383
      7 C         138.3467  138.3946  165.3405 C.ar    1  UNL1        0.0145
      8 C         139.2434  139.3463  164.6055 C.ar    1  UNL1        0.0579
      9 CL        139.4062  139.2272  163.1191 Cl      1  UNL1       -0.0822
     10 C         139.9774  140.4171  165.3569 C.ar    1  UNL1        0.0142
     11 C         139.8147  140.5362  166.8433 C.ar    1  UNL1        0.0345
     12 C         140.2036  141.8046  170.4909 C.2     1  UNL1        0.2221
     13 O         139.2143  142.7437  171.1149 O.2     1  UNL1       -0.2870
     14 C         141.5228  141.5525  171.1590 C.3     1  UNL1        0.1773
     15 C         142.3613  140.3797  170.7448 C.1     1  UNL1        0.0816
     16 N         143.1997  139.2070  170.3306 N.1     1  UNL1       -0.1954
@<TRIPOS>BOND
     1     1     2    1
     2     2     3   ar
     3     3    12    1
     4    12    13    2
     5    12    14    1
     6    14    15    1
     7    15    16    3
     8     3     4   ar
     9     4     5   ar
    10     5     6   ar
    11     6     7   ar
    12     7     8   ar
    13     8     9    1
    14     8    10   ar
    15    10    11   ar
    16    11     2   ar
    17    11     5   ar
@<TRIPOS>MOLECULE
*****
 16 17 0 0 0
SMALL
GASTEIGER

@<TRIPOS>ATOM
      1 C         138.7986  139.3186  167.2038 C.3     1  UNL1        0.0344
      2 C         139.7604  140.4406  166.9467 C.ar    1  UNL1        0.0186
      3 C         141.0465  140.6847  167.6791 C.ar    1  UNL1        0.1769
      4 O         141.6858  141.9104  167.0971 O.2     1  UNL1       -0.4509
      5 C         140.7949  142.4239  166.0050 C.ar    1  UNL1        0.1452
      6 C         140.9135  143.6012  165.0832 C.ar    1  UNL1        0.0383
      7 C         139.8421  143.8701  164.0685 C.ar    1  UNL1        0.0145
      8 C         138.6521  142.9617  163.9755 C.ar    1  UNL1        0.0579
      9 CL        137.5807  143.2306  162.9607 Cl      1  UNL1       -0.0822
     10 C         138.5335  141.7843  164.8973 C.ar    1  UNL1        0.0142
     11 C         139.6049  141.5154  165.9120 C.ar    1  UNL1        0.0345
     12 C         141.5966  139.8497  168.7972 C.2     1  UNL1        0.2221
     13 O         142.8824  139.1001  168.6109 O.2     1  UNL1       -0.2870
     14 C         140.8609  139.7643  170.1016 C.3     1  UNL1        0.1773
     15 C         140.7591  140.9718  170.9857 C.1     1  UNL1        0.0816
     16 N         140.6573  142.1792  171.8698 N.1     1  UNL1       -0.1954
@<TRIPOS>BOND
     1     1     2    1
     2     2     3   ar
     3     3    12    1
     4    12    13    2
     5    12    14    1
     6    14    15    1
     7    15    16    3
     8     3     4   ar
     9     4     5   ar
    10     5     6   ar
    11     6     7   ar
    12     7     8   ar
    13     8     9    1
    14     8    10   ar
    15    10    11   ar
    16    11     2   ar
    17    11     5   ar
@<TRIPOS>MOLECULE
*****
 16 17 0 0 0
SMALL
GASTEIGER

@<TRIPOS>ATOM
      1 C         137.7096  138.5052  166.9442 C.3     1  UNL1        0.0344
      2 C         138.7699  139.4992  166.5730 C.ar    1  UNL1        0.0186
      3 C         139.1452  139.9091  165.1798 C.ar    1  UNL1        0.1769
      4 O         140.2483  140.9210  165.2756 O.2     1  UNL1       -0.4509
      5 C         140.5548  141.1365  166.7281 C.ar    1  UNL1        0.1452
      6 C         141.5478  142.0193  167.4241 C.ar    1  UNL1        0.0383
      7 C         141.6271  142.0234  168.9220 C.ar    1  UNL1        0.0145
      8 C         140.7134  141.1446  169.7238 C.ar    1  UNL1        0.0579
      9 CL        140.7927  141.1488  171.2218 Cl      1  UNL1       -0.0822
     10 C         139.7204  140.2618  169.0278 C.ar    1  UNL1        0.0142
     11 C         139.6411  140.2577  167.5299 C.ar    1  UNL1        0.0345
     12 C         138.5261  139.3970  163.9131 C.2     1  UNL1        0.2221
     13 O         137.6084  140.2773  163.1176 O.2     1  UNL1       -0.2870
     14 C         138.8247  138.0047  163.4419 C.3     1  UNL1        0.1773
     15 C         140.1071  137.7163  162.7192 C.1     1  UNL1        0.0816
     16 N         141.3895  137.4279  161.9965 N.1     1  UNL1       -0.1954
@<TRIPOS>BOND
     1     1     2    1
     2     2     3   ar
     3     3    12    1
     4    12    13    2
     5    12    14    1
     6    14    15    1
     7    15    16    3
     8     3     4   ar
     9     4     5   ar
    10     5     6   ar
    11     6     7   ar
    12     7     8   ar
    13     8     9    1
    14     8    10   ar
    15    10    11   ar
    16    11     2   ar
    17    11     5   ar
