@<TRIPOS>MOLECULE
*****
 33 38 0 0 0
SMALL
GASTEIGER

@<TRIPOS>ATOM
      1 N         138.4152  141.5630  162.7152 N.pl3   1  UNL1       -0.3425
      2 C         138.8751  141.1182  164.0719 C.ar    1  UNL1        0.1316
      3 N         138.1502  140.0158  164.7854 N.ar    1  UNL1       -0.2093
      4 C         138.6101  139.5710  166.1421 C.ar    1  UNL1        0.2014
      5 N         139.7949  140.2287  166.7852 N.ar    1  UNL1       -0.2050
      6 C         140.5198  141.3311  166.0717 C.ar    1  UNL1        0.1653
      7 C         140.0599  141.7759  164.7150 C.ar    1  UNL1        0.0860
      8 C         140.9664  142.8798  164.2571 C.ar    1  UNL1        0.1065
      9 N         141.9865  143.1173  165.3308 N.ar    1  UNL1       -0.1679
     10 N         141.7106  142.1602  166.4523 N.ar    1  UNL1       -0.2340
     11 H         137.6375  141.1313  162.2930 H       1  UNL1        0.1437
     12 H         138.8910  142.2866  162.2469 H       1  UNL1        0.1437
     13 C         140.8697  143.6168  162.9542 C.ar    1  UNL1        0.0195
     14 C         139.9646  144.8066  162.8310 C.ar    1  UNL1        0.0016
     15 C         139.8679  145.5436  161.5281 C.ar    1  UNL1        0.0001
     16 C         140.6763  145.0907  160.3485 C.ar    1  UNL1        0.0030
     17 C         140.5795  145.8278  159.0456 C.ar    1  UNL1        0.0369
     18 C         141.3879  145.3749  157.8660 C.ar    1  UNL1        0.1384
     19 C         142.2930  144.1851  157.9892 C.ar    1  UNL1        0.0369
     20 C         142.3897  143.4481  159.2921 C.ar    1  UNL1        0.0031
     21 C         141.5813  143.9010  160.4717 C.ar    1  UNL1        0.0002
     22 C         141.6780  143.1640  161.7746 C.ar    1  UNL1        0.0016
     23 O         141.2912  146.1119  156.5631 O.3     1  UNL1       -0.4792
     24 C         139.9708  146.6580  156.1065 C.3     1  UNL1        0.1661
     25 C         138.7350  146.5350  155.2653 C.3     1  UNL1        0.0472
     26 C         138.9198  147.7270  156.1569 C.3     1  UNL1        0.0472
     27 C         142.4887  142.0512  167.7301 C.3     1  UNL1        0.1292
     28 C         141.7762  142.1042  169.0489 C.3     1  UNL1        0.0295
     29 C         140.6787  143.1028  169.2688 C.3     1  UNL1        0.0341
     30 C         139.9662  143.1558  170.5877 C.3     1  UNL1        0.1422
     31 O         140.3512  142.2102  171.6867 O.3     1  UNL1       -0.3538
     32 C         141.4487  141.2117  171.4668 C.3     1  UNL1        0.1422
     33 C         142.1612  141.1587  170.1480 C.3     1  UNL1        0.0341
@<TRIPOS>BOND
     1     1     2    1
     2     2     3   ar
     3     3     4   ar
     4     4     5   ar
     5     5     6   ar
     6     6     7   ar
     7     7     8   ar
     8     8    13    1
     9    13    14   ar
    10    14    15   ar
    11    15    16   ar
    12    16    17   ar
    13    17    18   ar
    14    18    23    1
    15    23    24    1
    16    24    25    1
    17    25    26    1
    18    18    19   ar
    19    19    20   ar
    20    20    21   ar
    21    21    22   ar
    22     8     9   ar
    23     9    10   ar
    24    10    27    1
    25    27    28    1
    26    28    29    1
    27    29    30    1
    28    30    31    1
    29    31    32    1
    30    32    33    1
    31     7     2   ar
    32    22    13   ar
    33    33    28    1
    34    10     6   ar
    35    21    16   ar
    36    26    24    1
    37     1    11    1
    38     1    12    1
@<TRIPOS>MOLECULE
*****
 33 38 0 0 0
SMALL
GASTEIGER

@<TRIPOS>ATOM
      1 N         137.3498  140.2180  161.0134 N.pl3   1  UNL1       -0.3425
      2 C         138.0751  139.9894  159.7205 C.ar    1  UNL1        0.1316
      3 N         137.4661  140.4460  158.4280 N.ar    1  UNL1       -0.2093
      4 C         138.1914  140.2174  157.1351 C.ar    1  UNL1        0.2014
      5 N         139.5258  139.5321  157.1347 N.ar    1  UNL1       -0.2050
      6 C         140.1347  139.0755  158.4272 C.ar    1  UNL1        0.1653
      7 C         139.4094  139.3041  159.7201 C.ar    1  UNL1        0.0860
      8 C         140.2523  138.7477  160.8292 C.ar    1  UNL1        0.1065
      9 N         141.4986  138.1753  160.2217 N.ar    1  UNL1       -0.1679
     10 N         141.4259  138.3778  158.7372 N.ar    1  UNL1       -0.2340
     11 H         136.4740  140.6678  161.0137 H       1  UNL1        0.1437
     12 H         137.7495  139.9183  161.8617 H       1  UNL1        0.1437
     13 C         139.9091  138.7615  162.2894 C.ar    1  UNL1        0.0195
     14 C         139.1210  137.6329  162.8852 C.ar    1  UNL1        0.0016
     15 C         138.7778  137.6467  164.3453 C.ar    1  UNL1        0.0001
     16 C         139.2229  138.7890  165.2096 C.ar    1  UNL1        0.0030
     17 C         138.8797  138.8028  166.6698 C.ar    1  UNL1        0.0369
     18 C         139.3247  139.9451  167.5341 C.ar    1  UNL1        0.1384
     19 C         140.1130  141.0737  166.9382 C.ar    1  UNL1        0.0369
     20 C         140.4561  141.0599  165.4781 C.ar    1  UNL1        0.0031
     21 C         140.0111  139.9176  164.6138 C.ar    1  UNL1        0.0002
     22 C         140.3542  139.9038  163.1537 C.ar    1  UNL1        0.0016
     23 O         138.9816  139.9589  168.9943 O.3     1  UNL1       -0.4792
     24 C         139.6816  140.9090  169.9203 C.3     1  UNL1        0.1661
     25 C         140.6934  141.1643  170.9978 C.3     1  UNL1        0.0472
     26 C         139.8821  142.2992  170.4466 C.3     1  UNL1        0.0472
     27 C         142.4625  137.9566  157.7381 C.3     1  UNL1        0.1292
     28 C         142.2959  136.6729  156.9804 C.3     1  UNL1        0.0295
     29 C         143.1882  135.5047  157.2787 C.3     1  UNL1        0.0341
     30 C         143.0216  134.2209  156.5209 C.3     1  UNL1        0.1422
     31 O         141.9626  134.1054  155.4649 O.3     1  UNL1       -0.3538
     32 C         141.0702  135.2736  155.1666 C.3     1  UNL1        0.1422
     33 C         141.2368  136.5573  155.9244 C.3     1  UNL1        0.0341
@<TRIPOS>BOND
     1     1     2    1
     2     2     3   ar
     3     3     4   ar
     4     4     5   ar
     5     5     6   ar
     6     6     7   ar
     7     7     8   ar
     8     8    13    1
     9    13    14   ar
    10    14    15   ar
    11    15    16   ar
    12    16    17   ar
    13    17    18   ar
    14    18    23    1
    15    23    24    1
    16    24    25    1
    17    25    26    1
    18    18    19   ar
    19    19    20   ar
    20    20    21   ar
    21    21    22   ar
    22     8     9   ar
    23     9    10   ar
    24    10    27    1
    25    27    28    1
    26    28    29    1
    27    29    30    1
    28    30    31    1
    29    31    32    1
    30    32    33    1
    31     7     2   ar
    32    22    13   ar
    33    33    28    1
    34    10     6   ar
    35    21    16   ar
    36    26    24    1
    37     1    11    1
    38     1    12    1
@<TRIPOS>MOLECULE
*****
 33 38 0 0 0
SMALL
GASTEIGER

@<TRIPOS>ATOM
      1 N         141.9992  145.1721  161.1700 N.pl3   1  UNL1       -0.3425
      2 C         141.4205  144.9645  159.8018 C.ar    1  UNL1        0.1316
      3 N         142.0364  145.6456  158.6157 N.ar    1  UNL1       -0.2093
      4 C         141.4577  145.4379  157.2475 C.ar    1  UNL1        0.2014
      5 N         140.2631  144.5491  157.0655 N.ar    1  UNL1       -0.2050
      6 C         139.6472  143.8681  158.2515 C.ar    1  UNL1        0.1653
      7 C         140.2259  144.0758  159.6197 C.ar    1  UNL1        0.0860
      8 C         139.4107  143.2780  160.5938 C.ar    1  UNL1        0.1065
      9 N         138.3281  142.5773  159.8277 N.ar    1  UNL1       -0.1679
     10 N         138.4743  142.9420  158.3801 N.ar    1  UNL1       -0.2340
     11 H         142.7832  145.7554  161.2895 H       1  UNL1        0.1437
     12 H         141.5950  144.7251  161.9485 H       1  UNL1        0.1437
     13 C         139.6381  143.1954  162.0742 C.ar    1  UNL1        0.0195
     14 C         138.8301  144.0493  163.0059 C.ar    1  UNL1        0.0016
     15 C         139.0576  143.9667  164.4862 C.ar    1  UNL1        0.0001
     16 C         140.0930  143.0303  165.0349 C.ar    1  UNL1        0.0030
     17 C         140.3204  142.9477  166.5153 C.ar    1  UNL1        0.0369
     18 C         141.3558  142.0113  167.0639 C.ar    1  UNL1        0.1384
     19 C         142.1638  141.1573  166.1322 C.ar    1  UNL1        0.0369
     20 C         141.9363  141.2399  164.6518 C.ar    1  UNL1        0.0031
     21 C         140.9009  142.1764  164.1032 C.ar    1  UNL1        0.0002
     22 C         140.6735  142.2590  162.6229 C.ar    1  UNL1        0.0016
     23 O         141.5832  141.9287  168.5443 O.3     1  UNL1       -0.4792
     24 C         140.7899  142.7977  169.4746 C.3     1  UNL1        0.1661
     25 C         140.3798  144.1615  169.9456 C.3     1  UNL1        0.0472
     26 C         139.8258  142.9389  170.6151 C.3     1  UNL1        0.0472
     27 C         137.6009  142.4644  157.2579 C.3     1  UNL1        0.1292
     28 C         137.8669  141.1363  156.6135 C.3     1  UNL1        0.0295
     29 C         137.0180  140.6762  155.4657 C.3     1  UNL1        0.0341
     30 C         137.2840  139.3481  154.8212 C.3     1  UNL1        0.1422
     31 O         138.3991  138.4801  155.3246 O.3     1  UNL1       -0.3538
     32 C         139.2481  138.9403  156.4724 C.3     1  UNL1        0.1422
     33 C         138.9820  140.2684  157.1168 C.3     1  UNL1        0.0341
@<TRIPOS>BOND
     1     1     2    1
     2     2     3   ar
     3     3     4   ar
     4     4     5   ar
     5     5     6   ar
     6     6     7   ar
     7     7     8   ar
     8     8    13    1
     9    13    14   ar
    10    14    15   ar
    11    15    16   ar
    12    16    17   ar
    13    17    18   ar
    14    18    23    1
    15    23    24    1
    16    24    25    1
    17    25    26    1
    18    18    19   ar
    19    19    20   ar
    20    20    21   ar
    21    21    22   ar
    22     8     9   ar
    23     9    10   ar
    24    10    27    1
    25    27    28    1
    26    28    29    1
    27    29    30    1
    28    30    31    1
    29    31    32    1
    30    32    33    1
    31     7     2   ar
    32    22    13   ar
    33    33    28    1
    34    10     6   ar
    35    21    16   ar
    36    26    24    1
    37     1    11    1
    38     1    12    1
@<TRIPOS>MOLECULE
*****
 33 38 0 0 0
SMALL
GASTEIGER

@<TRIPOS>ATOM
      1 N         142.6587  137.4097  161.0110 N.pl3   1  UNL1       -0.3425
      2 C         142.9552  138.0333  159.6794 C.ar    1  UNL1        0.1316
      3 N         142.8134  137.2244  158.4242 N.ar    1  UNL1       -0.2093
      4 C         143.1099  137.8480  157.0926 C.ar    1  UNL1        0.2014
      5 N         143.5481  139.2806  157.0163 N.ar    1  UNL1       -0.2050
      6 C         143.6898  140.0895  158.2714 C.ar    1  UNL1        0.1653
      7 C         143.3934  139.4658  159.6030 C.ar    1  UNL1        0.0860
      8 C         143.6202  140.5039  160.6619 C.ar    1  UNL1        0.1065
      9 N         144.0568  141.7690  159.9847 N.ar    1  UNL1       -0.1679
     10 N         144.0999  141.5130  158.5073 N.ar    1  UNL1       -0.2340
     11 H         142.3711  136.4695  161.0612 H       1  UNL1        0.1437
     12 H         142.7517  137.9406  161.8349 H       1  UNL1        0.1437
     13 C         143.4417  140.3106  162.1387 C.ar    1  UNL1        0.0195
     14 C         144.6110  139.9127  162.9897 C.ar    1  UNL1        0.0016
     15 C         144.4324  139.7195  164.4665 C.ar    1  UNL1        0.0001
     16 C         143.0846  139.9241  165.0921 C.ar    1  UNL1        0.0030
     17 C         142.9061  139.7308  166.5689 C.ar    1  UNL1        0.0369
     18 C         141.5582  139.9354  167.1945 C.ar    1  UNL1        0.1384
     19 C         140.3888  140.3332  166.3433 C.ar    1  UNL1        0.0369
     20 C         140.5674  140.5265  164.8666 C.ar    1  UNL1        0.0031
     21 C         141.9152  140.3219  164.2410 C.ar    1  UNL1        0.0002
     22 C         142.0938  140.5152  162.7643 C.ar    1  UNL1        0.0016
     23 O         141.3796  139.7421  168.6712 O.3     1  UNL1       -0.4792
     24 C         140.2377  140.4063  169.3819 C.3     1  UNL1        0.1661
     25 C         139.6450  141.6167  170.0403 C.3     1  UNL1        0.0472
     26 C         138.8526  140.3460  169.9544 C.3     1  UNL1        0.0472
     27 C         144.4853  142.5060  157.4512 C.3     1  UNL1        0.1292
     28 C         145.6264  142.2097  156.5238 C.3     1  UNL1        0.0295
     29 C         147.0338  142.5103  156.9465 C.3     1  UNL1        0.0341
     30 C         148.1749  142.2140  156.0190 C.3     1  UNL1        0.1422
     31 O         147.9085  141.6171  154.6689 O.3     1  UNL1       -0.3538
     32 C         146.5010  141.3165  154.2463 C.3     1  UNL1        0.1422
     33 C         145.3600  141.6128  155.1737 C.3     1  UNL1        0.0341
@<TRIPOS>BOND
     1     1     2    1
     2     2     3   ar
     3     3     4   ar
     4     4     5   ar
     5     5     6   ar
     6     6     7   ar
     7     7     8   ar
     8     8    13    1
     9    13    14   ar
    10    14    15   ar
    11    15    16   ar
    12    16    17   ar
    13    17    18   ar
    14    18    23    1
    15    23    24    1
    16    24    25    1
    17    25    26    1
    18    18    19   ar
    19    19    20   ar
    20    20    21   ar
    21    21    22   ar
    22     8     9   ar
    23     9    10   ar
    24    10    27    1
    25    27    28    1
    26    28    29    1
    27    29    30    1
    28    30    31    1
    29    31    32    1
    30    32    33    1
    31     7     2   ar
    32    22    13   ar
    33    33    28    1
    34    10     6   ar
    35    21    16   ar
    36    26    24    1
    37     1    11    1
    38     1    12    1
@<TRIPOS>MOLECULE
*****
 33 38 0 0 0
SMALL
GASTEIGER

@<TRIPOS>ATOM
      1 N         139.2139  137.6859  163.8998 N.pl3   1  UNL1       -0.3425
      2 C         139.2723  138.5263  165.1409 C.ar    1  UNL1        0.1316
      3 N         138.2481  138.3411  166.2209 N.ar    1  UNL1       -0.2093
      4 C         138.3065  139.1815  167.4620 C.ar    1  UNL1        0.2014
      5 N         139.3893  140.2071  167.6230 N.ar    1  UNL1       -0.2050
      6 C         140.4135  140.3922  166.5430 C.ar    1  UNL1        0.1653
      7 C         140.3551  139.5519  165.3019 C.ar    1  UNL1        0.0860
      8 C         141.4940  139.9570  164.4137 C.ar    1  UNL1        0.1065
      9 N         142.2563  141.0477  165.1059 N.ar    1  UNL1       -0.1679
     10 N         141.5885  141.3167  166.4218 N.ar    1  UNL1       -0.2340
     11 H         138.5033  137.0128  163.7941 H       1  UNL1        0.1437
     12 H         139.8862  137.8075  163.1909 H       1  UNL1        0.1437
     13 C         141.8143  139.3737  163.0693 C.ar    1  UNL1        0.0195
     14 C         142.9625  138.4203  162.9197 C.ar    1  UNL1        0.0016
     15 C         143.2828  137.8370  161.5754 C.ar    1  UNL1        0.0001
     16 C         142.4548  138.2072  160.3807 C.ar    1  UNL1        0.0030
     17 C         142.7751  137.6239  159.0363 C.ar    1  UNL1        0.0369
     18 C         141.9470  137.9940  157.8416 C.ar    1  UNL1        0.1384
     19 C         140.7987  138.9475  157.9913 C.ar    1  UNL1        0.0369
     20 C         140.4784  139.5307  159.3356 C.ar    1  UNL1        0.0031
     21 C         141.3065  139.1606  160.5303 C.ar    1  UNL1        0.0002
     22 C         140.9862  139.7438  161.8746 C.ar    1  UNL1        0.0016
     23 O         142.2673  137.4108  156.4973 O.3     1  UNL1       -0.4792
     24 C         142.5895  135.9513  156.3704 C.3     1  UNL1        0.1661
     25 C         142.2873  134.5995  155.7949 C.3     1  UNL1        0.0472
     26 C         143.4499  134.7752  156.7262 C.3     1  UNL1        0.0472
     27 C         142.0201  142.3320  167.4382 C.3     1  UNL1        0.1292
     28 C         141.5139  142.2445  168.8475 C.3     1  UNL1        0.0295
     29 C         140.4003  143.1410  169.3014 C.3     1  UNL1        0.0341
     30 C         139.8941  143.0534  170.7107 C.3     1  UNL1        0.1422
     31 O         140.5015  142.0693  171.6660 O.3     1  UNL1       -0.3538
     32 C         141.6150  141.1727  171.2120 C.3     1  UNL1        0.1422
     33 C         142.1212  141.2603  169.8028 C.3     1  UNL1        0.0341
@<TRIPOS>BOND
     1     1     2    1
     2     2     3   ar
     3     3     4   ar
     4     4     5   ar
     5     5     6   ar
     6     6     7   ar
     7     7     8   ar
     8     8    13    1
     9    13    14   ar
    10    14    15   ar
    11    15    16   ar
    12    16    17   ar
    13    17    18   ar
    14    18    23    1
    15    23    24    1
    16    24    25    1
    17    25    26    1
    18    18    19   ar
    19    19    20   ar
    20    20    21   ar
    21    21    22   ar
    22     8     9   ar
    23     9    10   ar
    24    10    27    1
    25    27    28    1
    26    28    29    1
    27    29    30    1
    28    30    31    1
    29    31    32    1
    30    32    33    1
    31     7     2   ar
    32    22    13   ar
    33    33    28    1
    34    10     6   ar
    35    21    16   ar
    36    26    24    1
    37     1    11    1
    38     1    12    1
@<TRIPOS>MOLECULE
*****
 33 38 0 0 0
SMALL
GASTEIGER

@<TRIPOS>ATOM
      1 N         138.4799  140.2664  159.5374 N.pl3   1  UNL1       -0.3425
      2 C         139.0717  139.6146  158.3230 C.ar    1  UNL1        0.1316
      3 N         138.4081  139.7747  156.9873 N.ar    1  UNL1       -0.2093
      4 C         138.9999  139.1228  155.7729 C.ar    1  UNL1        0.2014
      5 N         140.2554  138.3109  155.8943 N.ar    1  UNL1       -0.2050
      6 C         140.9190  138.1509  157.2299 C.ar    1  UNL1        0.1653
      7 C         140.3272  138.8027  158.4443 C.ar    1  UNL1        0.0860
      8 C         141.1980  138.4705  159.6196 C.ar    1  UNL1        0.1065
      9 N         142.3280  137.6133  159.1316 N.ar    1  UNL1       -0.1679
     10 N         142.1556  137.4158  157.6547 N.ar    1  UNL1       -0.2340
     11 H         137.6559  140.7993  159.4579 H       1  UNL1        0.1437
     12 H         138.9154  140.1614  160.4141 H       1  UNL1        0.1437
     13 C         140.9774  138.9171  161.0345 C.ar    1  UNL1        0.0195
     14 C         141.6746  140.1401  161.5523 C.ar    1  UNL1        0.0016
     15 C         141.4541  140.5866  162.9672 C.ar    1  UNL1        0.0001
     16 C         140.5363  139.8101  163.8643 C.ar    1  UNL1        0.0030
     17 C         140.3157  140.2567  165.2792 C.ar    1  UNL1        0.0369
     18 C         139.3980  139.4802  166.1763 C.ar    1  UNL1        0.1384
     19 C         138.7008  138.2572  165.6585 C.ar    1  UNL1        0.0369
     20 C         138.9213  137.8106  164.2436 C.ar    1  UNL1        0.0031
     21 C         139.8391  138.5871  163.3465 C.ar    1  UNL1        0.0002
     22 C         140.0597  138.1406  161.9316 C.ar    1  UNL1        0.0016
     23 O         139.1774  139.9268  167.5912 O.3     1  UNL1       -0.4792
     24 C         140.3221  139.9403  168.5605 C.3     1  UNL1        0.1661
     25 C         141.7981  139.9498  168.8277 C.3     1  UNL1        0.0472
     26 C         140.8287  139.9542  169.9723 C.3     1  UNL1        0.0472
     27 C         143.0609  136.6224  156.7596 C.3     1  UNL1        0.1292
     28 C         142.7983  135.1635  156.5302 C.3     1  UNL1        0.0295
     29 C         143.5863  134.1323  157.2822 C.3     1  UNL1        0.0341
     30 C         143.3236  132.6734  157.0528 C.3     1  UNL1        0.1422
     31 O         142.2730  132.2458  156.0713 O.3     1  UNL1       -0.3538
     32 C         141.4850  133.2770  155.3193 C.3     1  UNL1        0.1422
     33 C         141.7476  134.7359  155.5487 C.3     1  UNL1        0.0341
@<TRIPOS>BOND
     1     1     2    1
     2     2     3   ar
     3     3     4   ar
     4     4     5   ar
     5     5     6   ar
     6     6     7   ar
     7     7     8   ar
     8     8    13    1
     9    13    14   ar
    10    14    15   ar
    11    15    16   ar
    12    16    17   ar
    13    17    18   ar
    14    18    23    1
    15    23    24    1
    16    24    25    1
    17    25    26    1
    18    18    19   ar
    19    19    20   ar
    20    20    21   ar
    21    21    22   ar
    22     8     9   ar
    23     9    10   ar
    24    10    27    1
    25    27    28    1
    26    28    29    1
    27    29    30    1
    28    30    31    1
    29    31    32    1
    30    32    33    1
    31     7     2   ar
    32    22    13   ar
    33    33    28    1
    34    10     6   ar
    35    21    16   ar
    36    26    24    1
    37     1    11    1
    38     1    12    1
@<TRIPOS>MOLECULE
*****
 33 38 0 0 0
SMALL
GASTEIGER

@<TRIPOS>ATOM
      1 N         139.5091  139.7681  162.6377 N.pl3   1  UNL1       -0.3425
      2 C         139.5043  139.6437  164.1325 C.ar    1  UNL1        0.1316
      3 N         138.2036  139.5411  164.8724 N.ar    1  UNL1       -0.2093
      4 C         138.1988  139.4167  166.3672 C.ar    1  UNL1        0.2014
      5 N         139.4949  139.3949  167.1221 N.ar    1  UNL1       -0.2050
      6 C         140.7956  139.4975  166.3822 C.ar    1  UNL1        0.1653
      7 C         140.8004  139.6219  164.8874 C.ar    1  UNL1        0.0860
      8 C         142.2277  139.7048  164.4336 C.ar    1  UNL1        0.1065
      9 N         143.1051  139.6315  165.6480 N.ar    1  UNL1       -0.1679
     10 N         142.2201  139.5035  166.8523 N.ar    1  UNL1       -0.2340
     11 H         138.6585  139.7824  162.1422 H       1  UNL1        0.1437
     12 H         140.3628  139.8355  162.1520 H       1  UNL1        0.1437
     13 C         142.6955  139.8375  163.0146 C.ar    1  UNL1        0.0195
     14 C         143.0059  138.6107  162.2093 C.ar    1  UNL1        0.0016
     15 C         143.4736  138.7435  160.7903 C.ar    1  UNL1        0.0001
     16 C         143.6309  140.1031  160.1766 C.ar    1  UNL1        0.0030
     17 C         144.0987  140.2358  158.7575 C.ar    1  UNL1        0.0369
     18 C         144.2560  141.5955  158.1438 C.ar    1  UNL1        0.1384
     19 C         143.9455  142.8223  158.9491 C.ar    1  UNL1        0.0369
     20 C         143.4778  142.6896  160.3681 C.ar    1  UNL1        0.0031
     21 C         143.3205  141.3299  160.9819 C.ar    1  UNL1        0.0002
     22 C         142.8528  141.1971  162.4008 C.ar    1  UNL1        0.0016
     23 O         144.7237  141.7283  156.7248 O.3     1  UNL1       -0.4792
     24 C         146.1648  142.0275  156.4350 C.3     1  UNL1        0.1661
     25 C         147.3784  141.8574  155.5700 C.3     1  UNL1        0.0472
     26 C         147.4470  142.7159  156.7981 C.3     1  UNL1        0.0472
     27 C         142.6789  139.3996  168.2766 C.3     1  UNL1        0.1292
     28 C         142.3822  140.5078  169.2429 C.3     1  UNL1        0.0295
     29 C         141.1887  140.4152  170.1468 C.3     1  UNL1        0.0341
     30 C         140.8919  141.5234  171.1131 C.3     1  UNL1        0.1422
     31 O         141.7887  142.7243  171.1755 O.3     1  UNL1       -0.3538
     32 C         142.9822  142.8169  170.2716 C.3     1  UNL1        0.1422
     33 C         143.2789  141.7086  169.3053 C.3     1  UNL1        0.0341
@<TRIPOS>BOND
     1     1     2    1
     2     2     3   ar
     3     3     4   ar
     4     4     5   ar
     5     5     6   ar
     6     6     7   ar
     7     7     8   ar
     8     8    13    1
     9    13    14   ar
    10    14    15   ar
    11    15    16   ar
    12    16    17   ar
    13    17    18   ar
    14    18    23    1
    15    23    24    1
    16    24    25    1
    17    25    26    1
    18    18    19   ar
    19    19    20   ar
    20    20    21   ar
    21    21    22   ar
    22     8     9   ar
    23     9    10   ar
    24    10    27    1
    25    27    28    1
    26    28    29    1
    27    29    30    1
    28    30    31    1
    29    31    32    1
    30    32    33    1
    31     7     2   ar
    32    22    13   ar
    33    33    28    1
    34    10     6   ar
    35    21    16   ar
    36    26    24    1
    37     1    11    1
    38     1    12    1
@<TRIPOS>MOLECULE
*****
 33 38 0 0 0
SMALL
GASTEIGER

@<TRIPOS>ATOM
      1 N         138.3378  142.5981  161.5671 N.pl3   1  UNL1       -0.3425
      2 C         138.7488  142.1441  160.1978 C.ar    1  UNL1        0.1316
      3 N         138.1731  142.8092  158.9828 N.ar    1  UNL1       -0.2093
      4 C         138.5842  142.3552  157.6136 C.ar    1  UNL1        0.2014
      5 N         139.5710  141.2361  157.4593 N.ar    1  UNL1       -0.2050
      6 C         140.1467  140.5710  158.6743 C.ar    1  UNL1        0.1653
      7 C         139.7356  141.0250  160.0435 C.ar    1  UNL1        0.0860
      8 C         140.4666  140.1856  161.0491 C.ar    1  UNL1        0.1065
      9 N         141.3294  139.2128  160.3013 N.ar    1  UNL1       -0.1679
     10 N         141.1318  139.4510  158.8336 N.ar    1  UNL1       -0.2340
     11 H         137.6901  143.3326  161.6683 H       1  UNL1        0.1437
     12 H         138.7156  142.1616  162.3645 H       1  UNL1        0.1437
     13 C         140.3543  140.2991  162.5406 C.ar    1  UNL1        0.0195
     14 C         141.2223  141.2689  163.2864 C.ar    1  UNL1        0.0016
     15 C         141.1100  141.3824  164.7779 C.ar    1  UNL1        0.0001
     16 C         140.1298  140.5261  165.5235 C.ar    1  UNL1        0.0030
     17 C         140.0176  140.6396  167.0151 C.ar    1  UNL1        0.0369
     18 C         139.0374  139.7833  167.7608 C.ar    1  UNL1        0.1384
     19 C         138.1695  138.8135  167.0149 C.ar    1  UNL1        0.0369
     20 C         138.2817  138.7000  165.5234 C.ar    1  UNL1        0.0031
     21 C         139.2619  139.5563  164.7778 C.ar    1  UNL1        0.0002
     22 C         139.3742  139.4429  163.2863 C.ar    1  UNL1        0.0016
     23 O         138.9251  139.8968  169.2522 O.3     1  UNL1       -0.4792
     24 C         139.6378  141.0005  169.9762 C.3     1  UNL1        0.1661
     25 C         140.7526  141.4615  170.8677 C.3     1  UNL1        0.0472
     26 C         139.7572  142.4511  170.3386 C.3     1  UNL1        0.0472
     27 C         141.8015  138.7009  157.7206 C.3     1  UNL1        0.1292
     28 C         143.0642  139.2334  157.1108 C.3     1  UNL1        0.0295
     29 C         143.7680  140.3986  157.7408 C.3     1  UNL1        0.0341
     30 C         145.0307  140.9311  157.1310 C.3     1  UNL1        0.1422
     31 O         145.5896  140.2985  155.8910 O.3     1  UNL1       -0.3538
     32 C         144.8858  139.1333  155.2610 C.3     1  UNL1        0.1422
     33 C         143.6231  138.6007  155.8708 C.3     1  UNL1        0.0341
@<TRIPOS>BOND
     1     1     2    1
     2     2     3   ar
     3     3     4   ar
     4     4     5   ar
     5     5     6   ar
     6     6     7   ar
     7     7     8   ar
     8     8    13    1
     9    13    14   ar
    10    14    15   ar
    11    15    16   ar
    12    16    17   ar
    13    17    18   ar
    14    18    23    1
    15    23    24    1
    16    24    25    1
    17    25    26    1
    18    18    19   ar
    19    19    20   ar
    20    20    21   ar
    21    21    22   ar
    22     8     9   ar
    23     9    10   ar
    24    10    27    1
    25    27    28    1
    26    28    29    1
    27    29    30    1
    28    30    31    1
    29    31    32    1
    30    32    33    1
    31     7     2   ar
    32    22    13   ar
    33    33    28    1
    34    10     6   ar
    35    21    16   ar
    36    26    24    1
    37     1    11    1
    38     1    12    1
@<TRIPOS>MOLECULE
*****
 33 38 0 0 0
SMALL
GASTEIGER

@<TRIPOS>ATOM
      1 N         138.2756  142.8902  160.7884 N.pl3   1  UNL1       -0.3425
      2 C         138.4517  142.2050  159.4658 C.ar    1  UNL1        0.1316
      3 N         138.0550  142.9050  158.1998 N.ar    1  UNL1       -0.2093
      4 C         138.2312  142.2198  156.8771 C.ar    1  UNL1        0.2014
      5 N         138.8040  140.8345  156.8205 N.ar    1  UNL1       -0.2050
      6 C         139.2006  140.1347  158.0864 C.ar    1  UNL1        0.1653
      7 C         139.0245  140.8199  159.4091 C.ar    1  UNL1        0.0860
      8 C         139.5024  139.8867  160.4819 C.ar    1  UNL1        0.1065
      9 N         139.9739  138.6247  159.8223 N.ar    1  UNL1       -0.1679
     10 N         139.7874  138.7780  158.3418 N.ar    1  UNL1       -0.2340
     11 H         137.8996  143.7994  160.8257 H       1  UNL1        0.1437
     12 H         138.5359  142.4308  161.6194 H       1  UNL1        0.1437
     13 C         139.5078  140.1664  161.9556 C.ar    1  UNL1        0.0195
     14 C         138.4124  139.6253  162.8258 C.ar    1  UNL1        0.0016
     15 C         138.4179  139.9050  164.2994 C.ar    1  UNL1        0.0001
     16 C         139.5188  140.7259  164.9029 C.ar    1  UNL1        0.0030
     17 C         139.5242  141.0056  166.3766 C.ar    1  UNL1        0.0369
     18 C         140.6251  141.8266  166.9801 C.ar    1  UNL1        0.1384
     19 C         141.7205  142.3677  166.1099 C.ar    1  UNL1        0.0369
     20 C         141.7150  142.0880  164.6362 C.ar    1  UNL1        0.0031
     21 C         140.6142  141.2671  164.0328 C.ar    1  UNL1        0.0002
     22 C         140.6087  140.9873  162.5591 C.ar    1  UNL1        0.0016
     23 O         140.6305  142.1063  168.4538 O.3     1  UNL1       -0.4792
     24 C         140.0324  141.1151  169.4076 C.3     1  UNL1        0.1661
     25 C         138.8274  140.4472  170.0009 C.3     1  UNL1        0.0472
     26 C         140.2014  140.0661  170.4663 C.3     1  UNL1        0.0472
     27 C         140.1279  137.7542  157.2996 C.3     1  UNL1        0.1292
     28 C         141.5318  137.6492  156.7819 C.3     1  UNL1        0.0295
     29 C         142.1773  136.3035  156.6325 C.3     1  UNL1        0.0341
     30 C         143.5812  136.1985  156.1148 C.3     1  UNL1        0.1422
     31 O         144.3396  137.4392  155.7466 O.3     1  UNL1       -0.3538
     32 C         143.6940  138.7849  155.8960 C.3     1  UNL1        0.1422
     33 C         142.2901  138.8899  156.4137 C.3     1  UNL1        0.0341
@<TRIPOS>BOND
     1     1     2    1
     2     2     3   ar
     3     3     4   ar
     4     4     5   ar
     5     5     6   ar
     6     6     7   ar
     7     7     8   ar
     8     8    13    1
     9    13    14   ar
    10    14    15   ar
    11    15    16   ar
    12    16    17   ar
    13    17    18   ar
    14    18    23    1
    15    23    24    1
    16    24    25    1
    17    25    26    1
    18    18    19   ar
    19    19    20   ar
    20    20    21   ar
    21    21    22   ar
    22     8     9   ar
    23     9    10   ar
    24    10    27    1
    25    27    28    1
    26    28    29    1
    27    29    30    1
    28    30    31    1
    29    31    32    1
    30    32    33    1
    31     7     2   ar
    32    22    13   ar
    33    33    28    1
    34    10     6   ar
    35    21    16   ar
    36    26    24    1
    37     1    11    1
    38     1    12    1
