@<TRIPOS>MOLECULE
*****
 30 33 0 0 0
SMALL
GASTEIGER

@<TRIPOS>ATOM
      1 O         141.0313  136.8458  162.9607 O.2     1  UNL1       -0.2665
      2 C         140.0995  137.9891  163.2338 C.ar    1  UNL1        0.2679
      3 C         139.5000  138.1586  164.5983 C.ar    1  UNL1        0.0980
      4 C         138.5681  139.3018  164.8714 C.ar    1  UNL1        0.1453
      5 C         138.2357  140.2756  163.7800 C.ar    1  UNL1        0.0561
      6 C         138.8352  140.1061  162.4155 C.ar    1  UNL1        0.0860
      7 N         139.7670  138.9629  162.1424 N.ar    1  UNL1       -0.2729
      8 C         140.3665  138.7934  160.7778 C.ar    1  UNL1        0.0671
      9 C         141.8467  138.9419  160.5852 C.ar    1  UNL1        0.0207
     10 C         142.4461  138.7725  159.2207 C.ar    1  UNL1        0.0384
     11 C         141.5655  138.4546  158.0488 C.ar    1  UNL1        0.1387
     12 C         140.0853  138.3061  158.2414 C.ar    1  UNL1        0.0384
     13 C         139.4858  138.4756  159.6060 C.ar    1  UNL1        0.0207
     14 O         142.1649  138.2852  156.6843 O.3     1  UNL1       -0.4740
     15 C         142.9506  137.0496  156.3584 C.3     1  UNL1        0.2226
     16 C         142.3060  135.6998  156.4699 C.3     1  UNL1        0.1200
     17 N         143.1557  134.4733  156.6241 N.3     1  UNL1       -0.2696
     18 C         143.7855  133.9915  157.8974 C.3     1  UNL1        0.0722
     19 C         144.5438  132.7337  157.5923 C.3     1  UNL1        0.0188
     20 C         144.3827  132.4383  156.1305 C.3     1  UNL1        0.0188
     21 C         143.5248  133.5134  155.5322 C.3     1  UNL1        0.0722
     22 O         137.9687  139.4713  166.2360 O.3     1  UNL1       -0.4704
     23 C         138.8153  139.2687  167.4575 C.3     1  UNL1        0.2342
     24 C         139.4779  140.4434  168.1140 C.ar    1  UNL1        0.0486
     25 C         140.4445  141.2890  167.3389 C.ar    1  UNL1        0.0016
     26 C         141.1072  142.4638  167.9955 C.ar    1  UNL1       -0.0001
     27 C         140.8032  142.7929  169.4270 C.ar    1  UNL1        0.0023
     28 C         139.8366  141.9473  170.2020 C.ar    1  UNL1        0.0294
     29 C         139.1740  140.7726  169.5455 C.ar    1  UNL1        0.1396
     30 F         138.2074  139.9270  170.3206 F       1  UNL1       -0.2044
@<TRIPOS>BOND
     1     1     2    2
     2     2     3   ar
     3     3     4   ar
     4     4    22    1
     5    22    23    1
     6    23    24    1
     7    24    25   ar
     8    25    26   ar
     9    26    27   ar
    10    27    28   ar
    11    28    29   ar
    12    29    30    1
    13     4     5   ar
    14     5     6   ar
    15     6     7   ar
    16     7     8    1
    17     8     9   ar
    18     9    10   ar
    19    10    11   ar
    20    11    14    1
    21    14    15    1
    22    15    16    1
    23    16    17    1
    24    17    18    1
    25    18    19    1
    26    19    20    1
    27    20    21    1
    28    11    12   ar
    29    12    13   ar
    30     7     2   ar
    31    13     8   ar
    32    29    24   ar
    33    21    17    1
@<TRIPOS>MOLECULE
*****
 30 33 0 0 0
SMALL
GASTEIGER

@<TRIPOS>ATOM
      1 O         137.7017  144.4193  162.5234 O.2     1  UNL1       -0.2665
      2 C         138.4912  143.1640  162.7489 C.ar    1  UNL1        0.2679
      3 C         138.2548  142.3403  163.9799 C.ar    1  UNL1        0.0980
      4 C         139.0443  141.0849  164.2054 C.ar    1  UNL1        0.1453
      5 C         140.0702  140.6533  163.1999 C.ar    1  UNL1        0.0561
      6 C         140.3066  141.4770  161.9688 C.ar    1  UNL1        0.0860
      7 N         139.5171  142.7323  161.7433 N.ar    1  UNL1       -0.2729
      8 C         139.7535  143.5561  160.5121 C.ar    1  UNL1        0.0671
      9 C         139.2722  143.0666  159.1784 C.ar    1  UNL1        0.0207
     10 C         139.5086  143.8902  157.9473 C.ar    1  UNL1        0.0384
     11 C         140.2264  145.2034  158.0499 C.ar    1  UNL1        0.1387
     12 C         140.7077  145.6929  159.3836 C.ar    1  UNL1        0.0384
     13 C         140.4713  144.8692  160.6147 C.ar    1  UNL1        0.0207
     14 O         140.4628  146.0270  156.8187 O.3     1  UNL1       -0.4740
     15 C         139.3064  146.6735  156.1154 C.3     1  UNL1        0.2226
     16 C         139.5477  147.5371  154.9129 C.3     1  UNL1        0.1200
     17 N         139.2833  149.0119  154.9835 N.3     1  UNL1       -0.2696
     18 C         138.4769  149.7137  156.0359 C.3     1  UNL1        0.0722
     19 C         138.4741  151.1795  155.7169 C.3     1  UNL1        0.0188
     20 C         139.2788  151.3835  154.4675 C.3     1  UNL1        0.0188
     21 C         139.7788  150.0439  154.0143 C.3     1  UNL1        0.0722
     22 O         138.8079  140.2612  165.4366 O.3     1  UNL1       -0.4704
     23 C         139.9162  140.0569  166.4265 C.3     1  UNL1        0.2342
     24 C         139.9578  140.8723  167.6847 C.ar    1  UNL1        0.0486
     25 C         139.5518  140.2570  168.9911 C.ar    1  UNL1        0.0016
     26 C         139.5934  141.0725  170.2494 C.ar    1  UNL1       -0.0001
     27 C         140.0410  142.5034  170.2013 C.ar    1  UNL1        0.0023
     28 C         140.4469  143.1187  168.8949 C.ar    1  UNL1        0.0294
     29 C         140.4053  142.3033  167.6367 C.ar    1  UNL1        0.1396
     30 F         140.8112  142.9187  166.3304 F       1  UNL1       -0.2044
@<TRIPOS>BOND
     1     1     2    2
     2     2     3   ar
     3     3     4   ar
     4     4    22    1
     5    22    23    1
     6    23    24    1
     7    24    25   ar
     8    25    26   ar
     9    26    27   ar
    10    27    28   ar
    11    28    29   ar
    12    29    30    1
    13     4     5   ar
    14     5     6   ar
    15     6     7   ar
    16     7     8    1
    17     8     9   ar
    18     9    10   ar
    19    10    11   ar
    20    11    14    1
    21    14    15    1
    22    15    16    1
    23    16    17    1
    24    17    18    1
    25    18    19    1
    26    19    20    1
    27    20    21    1
    28    11    12   ar
    29    12    13   ar
    30     7     2   ar
    31    13     8   ar
    32    29    24   ar
    33    21    17    1
@<TRIPOS>MOLECULE
*****
 30 33 0 0 0
SMALL
GASTEIGER

@<TRIPOS>ATOM
      1 O         140.0712  137.6082  161.6458 O.2     1  UNL1       -0.2665
      2 C         139.4211  138.9274  161.3502 C.ar    1  UNL1        0.2679
      3 C         138.5456  139.5793  162.3789 C.ar    1  UNL1        0.0980
      4 C         137.8956  140.8984  162.0833 C.ar    1  UNL1        0.1453
      5 C         138.1211  141.5656  160.7590 C.ar    1  UNL1        0.0561
      6 C         138.9966  140.9137  159.7302 C.ar    1  UNL1        0.0860
      7 N         139.6466  139.5945  160.0258 N.ar    1  UNL1       -0.2729
      8 C         140.5222  138.9426  158.9970 C.ar    1  UNL1        0.0671
      9 C         139.9068  138.1511  157.8813 C.ar    1  UNL1        0.0207
     10 C         140.7823  137.4992  156.8525 C.ar    1  UNL1        0.0384
     11 C         142.2733  137.6387  156.9394 C.ar    1  UNL1        0.1387
     12 C         142.8887  138.4302  158.0551 C.ar    1  UNL1        0.0384
     13 C         142.0132  139.0821  159.0839 C.ar    1  UNL1        0.0207
     14 O         143.1488  136.9868  155.9106 O.3     1  UNL1       -0.4740
     15 C         143.7732  135.6527  156.1938 C.3     1  UNL1        0.2226
     16 C         143.1914  134.7615  157.2508 C.3     1  UNL1        0.1200
     17 N         143.6336  133.3319  157.3533 N.3     1  UNL1       -0.2696
     18 C         144.8877  132.8422  158.0149 C.3     1  UNL1        0.0722
     19 C         144.9286  131.3485  157.8826 C.3     1  UNL1        0.0188
     20 C         143.6999  130.9152  157.1393 C.3     1  UNL1        0.0188
     21 C         142.8996  132.1410  156.8121 C.3     1  UNL1        0.0722
     22 O         137.0200  141.5504  163.1122 O.3     1  UNL1       -0.4704
     23 C         137.6353  142.2183  164.3060 C.3     1  UNL1        0.2342
     24 C         138.8960  143.0164  164.1520 C.ar    1  UNL1        0.0486
     25 C         140.1742  142.5250  164.7641 C.ar    1  UNL1        0.0016
     26 C         141.4349  143.3231  164.6102 C.ar    1  UNL1       -0.0001
     27 C         141.4174  144.6126  163.8441 C.ar    1  UNL1        0.0023
     28 C         140.1391  145.1040  163.2320 C.ar    1  UNL1        0.0294
     29 C         138.8785  144.3060  163.3860 C.ar    1  UNL1        0.1396
     30 F         137.6003  144.7974  162.7739 F       1  UNL1       -0.2044
@<TRIPOS>BOND
     1     1     2    2
     2     2     3   ar
     3     3     4   ar
     4     4    22    1
     5    22    23    1
     6    23    24    1
     7    24    25   ar
     8    25    26   ar
     9    26    27   ar
    10    27    28   ar
    11    28    29   ar
    12    29    30    1
    13     4     5   ar
    14     5     6   ar
    15     6     7   ar
    16     7     8    1
    17     8     9   ar
    18     9    10   ar
    19    10    11   ar
    20    11    14    1
    21    14    15    1
    22    15    16    1
    23    16    17    1
    24    17    18    1
    25    18    19    1
    26    19    20    1
    27    20    21    1
    28    11    12   ar
    29    12    13   ar
    30     7     2   ar
    31    13     8   ar
    32    29    24   ar
    33    21    17    1
@<TRIPOS>MOLECULE
*****
 30 33 0 0 0
SMALL
GASTEIGER

@<TRIPOS>ATOM
      1 O         138.3013  143.6322  163.4117 O.2     1  UNL1       -0.2665
      2 C         139.6792  143.3076  163.9075 C.ar    1  UNL1        0.2679
      3 C         139.8882  142.9189  165.3411 C.ar    1  UNL1        0.0980
      4 C         141.2662  142.5944  165.8370 C.ar    1  UNL1        0.1453
      5 C         142.4351  142.6584  164.8993 C.ar    1  UNL1        0.0561
      6 C         142.2262  143.0471  163.4657 C.ar    1  UNL1        0.0860
      7 N         140.8482  143.3717  162.9698 N.ar    1  UNL1       -0.2729
      8 C         140.6393  143.7604  161.5361 C.ar    1  UNL1        0.0671
      9 C         140.5004  142.7001  160.4842 C.ar    1  UNL1        0.0207
     10 C         140.2915  143.0887  159.0506 C.ar    1  UNL1        0.0384
     11 C         140.2214  144.5377  158.6689 C.ar    1  UNL1        0.1387
     12 C         140.3602  145.5980  159.7208 C.ar    1  UNL1        0.0384
     13 C         140.5692  145.2093  161.1545 C.ar    1  UNL1        0.0207
     14 O         140.0125  144.9263  157.2353 O.3     1  UNL1       -0.4740
     15 C         140.0502  146.3719  156.8369 C.3     1  UNL1        0.2226
     16 C         138.9869  146.9303  155.9383 C.3     1  UNL1        0.1200
     17 N         138.9746  148.3940  155.6104 N.3     1  UNL1       -0.2696
     18 C         138.3814  149.4819  156.4558 C.3     1  UNL1        0.0722
     19 C         138.5935  150.7870  155.7475 C.3     1  UNL1        0.0188
     20 C         139.3177  150.5057  154.4643 C.3     1  UNL1        0.0188
     21 C         139.5532  149.0267  154.3797 C.3     1  UNL1        0.0722
     22 O         141.4751  142.2057  167.2707 O.3     1  UNL1       -0.4704
     23 C         141.3724  140.7663  167.6801 C.3     1  UNL1        0.2342
     24 C         140.4805  139.8316  166.9181 C.ar    1  UNL1        0.0486
     25 C         139.0427  139.6757  167.3159 C.ar    1  UNL1        0.0016
     26 C         138.1507  138.7409  166.5538 C.ar    1  UNL1       -0.0001
     27 C         138.6966  137.9620  165.3940 C.ar    1  UNL1        0.0023
     28 C         140.1345  138.1179  164.9962 C.ar    1  UNL1        0.0294
     29 C         141.0264  139.0526  165.7582 C.ar    1  UNL1        0.1396
     30 F         142.4643  139.2084  165.3604 F       1  UNL1       -0.2044
@<TRIPOS>BOND
     1     1     2    2
     2     2     3   ar
     3     3     4   ar
     4     4    22    1
     5    22    23    1
     6    23    24    1
     7    24    25   ar
     8    25    26   ar
     9    26    27   ar
    10    27    28   ar
    11    28    29   ar
    12    29    30    1
    13     4     5   ar
    14     5     6   ar
    15     6     7   ar
    16     7     8    1
    17     8     9   ar
    18     9    10   ar
    19    10    11   ar
    20    11    14    1
    21    14    15    1
    22    15    16    1
    23    16    17    1
    24    17    18    1
    25    18    19    1
    26    19    20    1
    27    20    21    1
    28    11    12   ar
    29    12    13   ar
    30     7     2   ar
    31    13     8   ar
    32    29    24   ar
    33    21    17    1
@<TRIPOS>MOLECULE
*****
 30 33 0 0 0
SMALL
GASTEIGER

@<TRIPOS>ATOM
      1 O         140.7399  136.9153  163.2758 O.2     1  UNL1       -0.2665
      2 C         141.8350  137.8424  163.7130 C.ar    1  UNL1        0.2679
      3 C         142.2079  137.9315  165.1632 C.ar    1  UNL1        0.0980
      4 C         143.3030  138.8587  165.6004 C.ar    1  UNL1        0.1453
      5 C         144.0252  139.6967  164.5875 C.ar    1  UNL1        0.0561
      6 C         143.6524  139.6076  163.1373 C.ar    1  UNL1        0.0860
      7 N         142.5573  138.6804  162.7001 N.ar    1  UNL1       -0.2729
      8 C         142.1844  138.5913  161.2499 C.ar    1  UNL1        0.0671
      9 C         143.0650  137.8428  160.2937 C.ar    1  UNL1        0.0207
     10 C         142.6922  137.7537  158.8435 C.ar    1  UNL1        0.0384
     11 C         141.4388  138.4131  158.3495 C.ar    1  UNL1        0.1387
     12 C         140.5581  139.1616  159.3056 C.ar    1  UNL1        0.0384
     13 C         140.9310  139.2507  160.7558 C.ar    1  UNL1        0.0207
     14 O         141.0660  138.3240  156.8993 O.3     1  UNL1       -0.4740
     15 C         140.7015  136.9987  156.2987 C.3     1  UNL1        0.2226
     16 C         141.7153  136.2319  155.5023 C.3     1  UNL1        0.1200
     17 N         142.1372  134.8623  155.9454 N.3     1  UNL1       -0.2696
     18 C         143.1257  134.5521  157.0302 C.3     1  UNL1        0.0722
     19 C         143.2441  133.0606  157.1367 C.3     1  UNL1        0.0188
     20 C         142.3289  132.4490  156.1177 C.3     1  UNL1        0.0188
     21 C         141.6448  133.5625  155.3815 C.3     1  UNL1        0.0722
     22 O         143.6758  138.9478  167.0506 O.3     1  UNL1       -0.4704
     23 C         142.6076  139.1102  168.0910 C.3     1  UNL1        0.2342
     24 C         142.2314  140.4801  168.5723 C.ar    1  UNL1        0.0486
     25 C         143.0891  141.1816  169.5835 C.ar    1  UNL1        0.0016
     26 C         142.7129  142.5516  170.0648 C.ar    1  UNL1       -0.0001
     27 C         141.4791  143.2201  169.5349 C.ar    1  UNL1        0.0023
     28 C         140.6215  142.5187  168.5237 C.ar    1  UNL1        0.0294
     29 C         140.9976  141.1487  168.0424 C.ar    1  UNL1        0.1396
     30 F         140.1400  140.4473  167.0313 F       1  UNL1       -0.2044
@<TRIPOS>BOND
     1     1     2    2
     2     2     3   ar
     3     3     4   ar
     4     4    22    1
     5    22    23    1
     6    23    24    1
     7    24    25   ar
     8    25    26   ar
     9    26    27   ar
    10    27    28   ar
    11    28    29   ar
    12    29    30    1
    13     4     5   ar
    14     5     6   ar
    15     6     7   ar
    16     7     8    1
    17     8     9   ar
    18     9    10   ar
    19    10    11   ar
    20    11    14    1
    21    14    15    1
    22    15    16    1
    23    16    17    1
    24    17    18    1
    25    18    19    1
    26    19    20    1
    27    20    21    1
    28    11    12   ar
    29    12    13   ar
    30     7     2   ar
    31    13     8   ar
    32    29    24   ar
    33    21    17    1
@<TRIPOS>MOLECULE
*****
 30 33 0 0 0
SMALL
GASTEIGER

@<TRIPOS>ATOM
      1 O         143.2699  137.9004  161.7510 O.2     1  UNL1       -0.2665
      2 C         142.2775  138.0380  160.6346 C.ar    1  UNL1        0.2679
      3 C         142.7088  137.8131  159.2157 C.ar    1  UNL1        0.0980
      4 C         141.7165  137.9508  158.0994 C.ar    1  UNL1        0.1453
      5 C         140.2928  138.3133  158.4019 C.ar    1  UNL1        0.0561
      6 C         139.8614  138.5383  159.8208 C.ar    1  UNL1        0.0860
      7 N         140.8538  138.4006  160.9372 N.ar    1  UNL1       -0.2729
      8 C         140.4224  138.6256  162.3561 C.ar    1  UNL1        0.0671
      9 C         140.1414  140.0162  162.8431 C.ar    1  UNL1        0.0207
     10 C         139.7100  140.2412  164.2619 C.ar    1  UNL1        0.0384
     11 C         139.5597  139.0755  165.1940 C.ar    1  UNL1        0.1387
     12 C         139.8407  137.6848  164.7070 C.ar    1  UNL1        0.0384
     13 C         140.2721  137.4599  163.2881 C.ar    1  UNL1        0.0207
     14 O         139.1283  139.3005  166.6128 O.3     1  UNL1       -0.4740
     15 C         139.8893  140.2536  167.4859 C.3     1  UNL1        0.2226
     16 C         141.3234  139.9764  167.8272 C.3     1  UNL1        0.1200
     17 N         142.3473  139.8719  166.7361 N.3     1  UNL1       -0.2696
     18 C         142.8369  140.9988  165.8755 C.3     1  UNL1        0.0722
     19 C         143.8536  140.4455  164.9215 C.3     1  UNL1        0.0188
     20 C         143.9924  138.9767  165.1924 C.3     1  UNL1        0.0188
     21 C         143.0614  138.6222  166.3138 C.3     1  UNL1        0.0722
     22 O         142.1479  137.7258  156.6804 O.3     1  UNL1       -0.4704
     23 C         143.3007  136.8135  156.3827 C.3     1  UNL1        0.2342
     24 C         143.0465  135.3947  155.9673 C.ar    1  UNL1        0.0486
     25 C         142.7219  135.0785  154.5374 C.ar    1  UNL1        0.0016
     26 C         142.4677  133.6597  154.1221 C.ar    1  UNL1       -0.0001
     27 C         142.5381  132.5572  155.1367 C.ar    1  UNL1        0.0023
     28 C         142.8626  132.8734  156.5666 C.ar    1  UNL1        0.0294
     29 C         143.1168  134.2921  156.9820 C.ar    1  UNL1        0.1396
     30 F         143.4414  134.6083  158.4119 F       1  UNL1       -0.2044
@<TRIPOS>BOND
     1     1     2    2
     2     2     3   ar
     3     3     4   ar
     4     4    22    1
     5    22    23    1
     6    23    24    1
     7    24    25   ar
     8    25    26   ar
     9    26    27   ar
    10    27    28   ar
    11    28    29   ar
    12    29    30    1
    13     4     5   ar
    14     5     6   ar
    15     6     7   ar
    16     7     8    1
    17     8     9   ar
    18     9    10   ar
    19    10    11   ar
    20    11    14    1
    21    14    15    1
    22    15    16    1
    23    16    17    1
    24    17    18    1
    25    18    19    1
    26    19    20    1
    27    20    21    1
    28    11    12   ar
    29    12    13   ar
    30     7     2   ar
    31    13     8   ar
    32    29    24   ar
    33    21    17    1
@<TRIPOS>MOLECULE
*****
 30 33 0 0 0
SMALL
GASTEIGER

@<TRIPOS>ATOM
      1 O         139.2230  140.1082  164.7675 O.2     1  UNL1       -0.2665
      2 C         140.5945  140.3652  165.3179 C.ar    1  UNL1        0.2679
      3 C         141.0987  139.5622  166.4802 C.ar    1  UNL1        0.0980
      4 C         142.4702  139.8192  167.0306 C.ar    1  UNL1        0.1453
      5 C         143.3375  140.8791  166.4188 C.ar    1  UNL1        0.0561
      6 C         142.8332  141.6821  165.2565 C.ar    1  UNL1        0.0860
      7 N         141.4617  141.4251  164.7060 N.ar    1  UNL1       -0.2729
      8 C         140.9575  142.2281  163.5437 C.ar    1  UNL1        0.0671
      9 C         140.0220  143.3775  163.7757 C.ar    1  UNL1        0.0207
     10 C         139.5178  144.1805  162.6134 C.ar    1  UNL1        0.0384
     11 C         139.9490  143.8342  161.2191 C.ar    1  UNL1        0.1387
     12 C         140.8845  142.6848  160.9871 C.ar    1  UNL1        0.0384
     13 C         141.3888  141.8818  162.1494 C.ar    1  UNL1        0.0207
     14 O         139.4448  144.6372  160.0568 O.3     1  UNL1       -0.4740
     15 C         140.3897  145.5026  159.2769 C.3     1  UNL1        0.2226
     16 C         140.7390  145.1463  157.8624 C.3     1  UNL1        0.1200
     17 N         140.3239  146.0476  156.7375 N.3     1  UNL1       -0.2696
     18 C         139.2249  147.0675  156.7845 C.3     1  UNL1        0.0722
     19 C         139.1568  147.7375  155.4442 C.3     1  UNL1        0.0188
     20 C         140.2136  147.1318  154.5688 C.3     1  UNL1        0.0188
     21 C         140.9349  146.0874  155.3682 C.3     1  UNL1        0.0722
     22 O         142.9745  139.0162  168.1930 O.3     1  UNL1       -0.4704
     23 C         142.6003  139.4058  169.5923 C.3     1  UNL1        0.2342
     24 C         141.8457  140.6782  169.8402 C.ar    1  UNL1        0.0486
     25 C         140.3588  140.6427  170.0346 C.ar    1  UNL1        0.0016
     26 C         139.6042  141.9152  170.2825 C.ar    1  UNL1       -0.0001
     27 C         140.3365  143.2231  170.3360 C.ar    1  UNL1        0.0023
     28 C         141.8234  143.2587  170.1417 C.ar    1  UNL1        0.0294
     29 C         142.5780  141.9863  169.8938 C.ar    1  UNL1        0.1396
     30 F         144.0650  142.0218  169.6994 F       1  UNL1       -0.2044
@<TRIPOS>BOND
     1     1     2    2
     2     2     3   ar
     3     3     4   ar
     4     4    22    1
     5    22    23    1
     6    23    24    1
     7    24    25   ar
     8    25    26   ar
     9    26    27   ar
    10    27    28   ar
    11    28    29   ar
    12    29    30    1
    13     4     5   ar
    14     5     6   ar
    15     6     7   ar
    16     7     8    1
    17     8     9   ar
    18     9    10   ar
    19    10    11   ar
    20    11    14    1
    21    14    15    1
    22    15    16    1
    23    16    17    1
    24    17    18    1
    25    18    19    1
    26    19    20    1
    27    20    21    1
    28    11    12   ar
    29    12    13   ar
    30     7     2   ar
    31    13     8   ar
    32    29    24   ar
    33    21    17    1
@<TRIPOS>MOLECULE
*****
 30 33 0 0 0
SMALL
GASTEIGER

@<TRIPOS>ATOM
      1 O         143.3191  137.8724  161.6048 O.2     1  UNL1       -0.2665
      2 C         142.2951  138.0421  160.5220 C.ar    1  UNL1        0.2679
      3 C         142.6780  137.8283  159.0875 C.ar    1  UNL1        0.0980
      4 C         141.6540  137.9979  158.0047 C.ar    1  UNL1        0.1453
      5 C         140.2471  138.3814  158.3562 C.ar    1  UNL1        0.0561
      6 C         139.8643  138.5952  159.7907 C.ar    1  UNL1        0.0860
      7 N         140.8883  138.4255  160.8735 N.ar    1  UNL1       -0.2729
      8 C         140.5054  138.6394  162.3080 C.ar    1  UNL1        0.0671
      9 C         140.2603  137.4605  163.2026 C.ar    1  UNL1        0.0207
     10 C         139.8774  137.6743  164.6370 C.ar    1  UNL1        0.0384
     11 C         139.7396  139.0670  165.1770 C.ar    1  UNL1        0.1387
     12 C         139.9846  140.2459  164.2824 C.ar    1  UNL1        0.0384
     13 C         140.3675  140.0320  162.8479 C.ar    1  UNL1        0.0207
     14 O         139.3567  139.2808  166.6114 O.3     1  UNL1       -0.4740
     15 C         139.7952  140.5237  167.3275 C.3     1  UNL1        0.2226
     16 C         140.2122  140.4526  168.7666 C.3     1  UNL1        0.1200
     17 N         141.3564  141.2888  169.2581 N.3     1  UNL1       -0.2696
     18 C         141.2487  142.5089  170.1241 C.3     1  UNL1        0.0722
     19 C         142.6350  143.0258  170.3711 C.3     1  UNL1        0.0188
     20 C         143.5995  142.1253  169.6577 C.3     1  UNL1        0.0188
     21 C         142.8092  141.0518  168.9698 C.3     1  UNL1        0.0722
     22 O         142.0369  137.7841  156.5701 O.3     1  UNL1       -0.4704
     23 C         143.1340  136.8222  156.2222 C.3     1  UNL1        0.2342
     24 C         142.8647  135.3466  156.2188 C.ar    1  UNL1        0.0486
     25 C         143.7089  134.4283  157.0519 C.ar    1  UNL1        0.0016
     26 C         143.4395  132.9526  157.0485 C.ar    1  UNL1       -0.0001
     27 C         142.3261  132.3954  156.2121 C.ar    1  UNL1        0.0023
     28 C         141.4820  133.3137  155.3790 C.ar    1  UNL1        0.0294
     29 C         141.7512  134.7893  155.3823 C.ar    1  UNL1        0.1396
     30 F         140.9071  135.7077  154.5492 F       1  UNL1       -0.2044
@<TRIPOS>BOND
     1     1     2    2
     2     2     3   ar
     3     3     4   ar
     4     4    22    1
     5    22    23    1
     6    23    24    1
     7    24    25   ar
     8    25    26   ar
     9    26    27   ar
    10    27    28   ar
    11    28    29   ar
    12    29    30    1
    13     4     5   ar
    14     5     6   ar
    15     6     7   ar
    16     7     8    1
    17     8     9   ar
    18     9    10   ar
    19    10    11   ar
    20    11    14    1
    21    14    15    1
    22    15    16    1
    23    16    17    1
    24    17    18    1
    25    18    19    1
    26    19    20    1
    27    20    21    1
    28    11    12   ar
    29    12    13   ar
    30     7     2   ar
    31    13     8   ar
    32    29    24   ar
    33    21    17    1
@<TRIPOS>MOLECULE
*****
 30 33 0 0 0
SMALL
GASTEIGER

@<TRIPOS>ATOM
      1 O         138.5907  139.0891  156.8614 O.2     1  UNL1       -0.2665
      2 C         139.9542  138.5865  157.2333 C.ar    1  UNL1        0.2679
      3 C         140.8106  137.9100  156.2044 C.ar    1  UNL1        0.0980
      4 C         142.1741  137.4074  156.5763 C.ar    1  UNL1        0.1453
      5 C         142.6811  137.5813  157.9773 C.ar    1  UNL1        0.0561
      6 C         141.8246  138.2578  159.0062 C.ar    1  UNL1        0.0860
      7 N         140.4612  138.7604  158.6343 N.ar    1  UNL1       -0.2729
      8 C         139.6047  139.4369  159.6633 C.ar    1  UNL1        0.0671
      9 C         138.8509  138.6171  160.6682 C.ar    1  UNL1        0.0207
     10 C         137.9945  139.2935  161.6972 C.ar    1  UNL1        0.0384
     11 C         137.8918  140.7898  161.7214 C.ar    1  UNL1        0.1387
     12 C         138.6456  141.6096  160.7165 C.ar    1  UNL1        0.0384
     13 C         139.5020  140.9331  159.6875 C.ar    1  UNL1        0.0207
     14 O         137.0354  141.4662  162.7504 O.3     1  UNL1       -0.4740
     15 C         137.6337  142.4909  163.6681 C.3     1  UNL1        0.2226
     16 C         138.3846  142.0549  164.8912 C.3     1  UNL1        0.1200
     17 N         138.8632  140.6384  165.0122 N.3     1  UNL1       -0.2696
     18 C         140.1978  140.1176  164.5674 C.3     1  UNL1        0.0722
     19 C         140.2506  138.6514  164.8796 C.3     1  UNL1        0.0188
     20 C         138.9488  138.2660  165.5174 C.3     1  UNL1        0.0188
     21 C         138.0913  139.4941  165.5993 C.3     1  UNL1        0.0722
     22 O         143.0306  136.7309  155.5473 O.3     1  UNL1       -0.4704
     23 C         143.8640  135.5434  155.9284 C.3     1  UNL1        0.2342
     24 C         143.2777  134.1642  155.8651 C.ar    1  UNL1        0.0486
     25 C         142.4007  133.7742  154.7124 C.ar    1  UNL1        0.0016
     26 C         141.8144  132.3950  154.6491 C.ar    1  UNL1       -0.0001
     27 C         142.1051  131.4058  155.7386 C.ar    1  UNL1        0.0023
     28 C         142.9821  131.7958  156.8913 C.ar    1  UNL1        0.0294
     29 C         143.5684  133.1750  156.9546 C.ar    1  UNL1        0.1396
     30 F         144.4453  133.5650  158.1074 F       1  UNL1       -0.2044
@<TRIPOS>BOND
     1     1     2    2
     2     2     3   ar
     3     3     4   ar
     4     4    22    1
     5    22    23    1
     6    23    24    1
     7    24    25   ar
     8    25    26   ar
     9    26    27   ar
    10    27    28   ar
    11    28    29   ar
    12    29    30    1
    13     4     5   ar
    14     5     6   ar
    15     6     7   ar
    16     7     8    1
    17     8     9   ar
    18     9    10   ar
    19    10    11   ar
    20    11    14    1
    21    14    15    1
    22    15    16    1
    23    16    17    1
    24    17    18    1
    25    18    19    1
    26    19    20    1
    27    20    21    1
    28    11    12   ar
    29    12    13   ar
    30     7     2   ar
    31    13     8   ar
    32    29    24   ar
    33    21    17    1
