@<TRIPOS>MOLECULE
*****
 31 33 0 0 0
SMALL
GASTEIGER

@<TRIPOS>ATOM
      1 C         141.8614  140.7161  164.5028 C.ar    1  UNL1        0.0401
      2 C         142.5981  141.9944  164.7735 C.ar    1  UNL1        0.0120
      3 C         142.5925  143.0937  163.7531 C.ar    1  UNL1        0.0645
      4 I         143.3293  144.3720  164.0237 I       1  UNL1       -0.0394
      5 C         141.8503  142.9148  162.4619 C.ar    1  UNL1        0.1491
      6 C         141.1136  141.6365  162.1912 C.ar    1  UNL1        0.0645
      7 I         140.3713  141.4576  160.9001 I       1  UNL1       -0.0394
      8 C         141.1192  140.5372  163.2117 C.ar    1  UNL1        0.0120
      9 C         141.8670  139.6167  165.5234 C.2     1  UNL1        0.1983
     10 O         142.7401  138.4133  165.3245 O.2     1  UNL1       -0.2865
     11 C         139.5250  139.4514  166.8012 C.ar    1  UNL1        0.1258
     12 O         139.0684  139.6766  168.2121 O.2     1  UNL1       -0.4577
     13 C         140.2606  140.0851  169.0256 C.ar    1  UNL1        0.1449
     14 C         140.4137  140.4357  170.4759 C.ar    1  UNL1        0.0375
     15 C         141.7602  140.8137  171.0181 C.ar    1  UNL1        0.0031
     16 C         142.9537  140.8409  170.1098 C.ar    1  UNL1        0.0002
     17 C         142.8006  140.4903  168.6595 C.ar    1  UNL1        0.0032
     18 C         141.4541  140.1124  168.1174 C.ar    1  UNL1        0.0403
     19 C         140.9994  139.7207  166.7426 C.ar    1  UNL1        0.0722
     20 C         138.6592  139.0307  165.6508 C.3     1  UNL1        0.0646
     21 C         138.8182  137.6643  165.0528 C.3     1  UNL1        0.0080
     22 C         138.4542  138.0139  162.5042 C.3     1  UNL1        0.0000
     23 C         139.2983  137.5153  163.6396 C.3     1  UNL1        0.0005
     24 O         141.8447  144.0142  161.4415 O.3     1  UNL1       -0.4731
     25 C         140.6163  144.8532  161.2497 C.3     1  UNL1        0.2227
     26 C         139.9765  145.5267  162.4275 C.3     1  UNL1        0.1200
     27 N         139.0936  144.7419  163.3518 N.3     1  UNL1       -0.2696
     28 C         137.8918  144.0246  162.8119 C.3     1  UNL1        0.0722
     29 C         137.5663  142.6409  163.2908 C.3     1  UNL1        0.0188
     30 C         139.4122  144.6743  164.8160 C.3     1  UNL1        0.0722
     31 C         138.3826  145.0831  165.8273 C.3     1  UNL1        0.0188
@<TRIPOS>BOND
     1    22    23    1
     2    23    21    1
     3    21    20    1
     4    20    11    1
     5    11    12   ar
     6    12    13   ar
     7    13    14   ar
     8    14    15   ar
     9    15    16   ar
    10    16    17   ar
    11    17    18   ar
    12    18    19   ar
    13    19     9    1
    14     9    10    2
    15     9     1    1
    16     1     2   ar
    17     2     3   ar
    18     3     4    1
    19     3     5   ar
    20     5    24    1
    21    24    25    1
    22    25    26    1
    23    26    27    1
    24    27    28    1
    25    28    29    1
    26    27    30    1
    27    30    31    1
    28     5     6   ar
    29     6     7    1
    30     6     8   ar
    31    19    11   ar
    32     8     1   ar
    33    18    13   ar
@<TRIPOS>MOLECULE
*****
 31 33 0 0 0
SMALL
GASTEIGER

@<TRIPOS>ATOM
      1 C         139.4591  140.7235  164.3978 C.ar    1  UNL1        0.0401
      2 C         139.2730  140.7039  162.9095 C.ar    1  UNL1        0.0120
      3 C         138.9337  141.9695  162.1795 C.ar    1  UNL1        0.0645
      4 I         138.7477  141.9500  160.6912 I       1  UNL1       -0.0394
      5 C         138.7804  143.2547  162.9377 C.ar    1  UNL1        0.1491
      6 C         138.9664  143.2743  164.4260 C.ar    1  UNL1        0.0645
      7 I         138.8131  144.5595  165.1841 I       1  UNL1       -0.0394
      8 C         139.3057  142.0087  165.1560 C.ar    1  UNL1        0.0120
      9 C         139.7985  139.4578  165.1280 C.2     1  UNL1        0.1983
     10 O         139.0918  138.1806  164.7831 O.2     1  UNL1       -0.2865
     11 C         142.3036  139.1760  166.0166 C.ar    1  UNL1        0.1258
     12 O         142.9760  139.3020  167.3516 O.2     1  UNL1       -0.4577
     13 C         141.9324  139.6734  168.3630 C.ar    1  UNL1        0.1449
     14 C         142.0114  139.9307  169.8386 C.ar    1  UNL1        0.0375
     15 C         140.7732  140.2916  170.6044 C.ar    1  UNL1        0.0031
     16 C         139.4558  140.3952  169.8945 C.ar    1  UNL1        0.0002
     17 C         139.3768  140.1379  168.4189 C.ar    1  UNL1        0.0032
     18 C         140.6150  139.7770  167.6531 C.ar    1  UNL1        0.0403
     19 C         140.8445  139.4696  166.2030 C.ar    1  UNL1        0.0722
     20 C         142.9729  138.8191  164.7225 C.3     1  UNL1        0.0646
     21 C         144.3181  139.3937  164.3904 C.3     1  UNL1        0.0080
     22 C         145.7187  141.5020  163.8043 C.3     1  UNL1        0.0000
     23 C         144.5513  140.8711  164.5039 C.3     1  UNL1        0.0005
     24 O         138.4410  144.5203  162.2075 O.3     1  UNL1       -0.4731
     25 C         139.4975  145.5601  161.9781 C.3     1  UNL1        0.2227
     26 C         140.7605  145.1990  161.2538 C.3     1  UNL1        0.1200
     27 N         141.9433  144.6846  162.0196 N.3     1  UNL1       -0.2696
     28 C         142.8240  143.6291  161.4192 C.3     1  UNL1        0.0722
     29 C         142.5816  142.1825  161.7331 C.3     1  UNL1        0.0188
     30 C         142.2454  145.2257  163.3856 C.3     1  UNL1        0.0722
     31 C         143.5850  144.9750  164.0121 C.3     1  UNL1        0.0188
@<TRIPOS>BOND
     1    22    23    1
     2    23    21    1
     3    21    20    1
     4    20    11    1
     5    11    12   ar
     6    12    13   ar
     7    13    14   ar
     8    14    15   ar
     9    15    16   ar
    10    16    17   ar
    11    17    18   ar
    12    18    19   ar
    13    19     9    1
    14     9    10    2
    15     9     1    1
    16     1     2   ar
    17     2     3   ar
    18     3     4    1
    19     3     5   ar
    20     5    24    1
    21    24    25    1
    22    25    26    1
    23    26    27    1
    24    27    28    1
    25    28    29    1
    26    27    30    1
    27    30    31    1
    28     5     6   ar
    29     6     7    1
    30     6     8   ar
    31    19    11   ar
    32     8     1   ar
    33    18    13   ar
@<TRIPOS>MOLECULE
*****
 31 33 0 0 0
SMALL
GASTEIGER

@<TRIPOS>ATOM
      1 C         141.0008  141.7345  164.8672 C.ar    1  UNL1        0.0401
      2 C         142.2033  142.5837  164.5792 C.ar    1  UNL1        0.0120
      3 C         142.0405  143.9034  163.8851 C.ar    1  UNL1        0.0645
      4 I         143.2430  144.7526  163.5971 I       1  UNL1       -0.0394
      5 C         140.6754  144.3739  163.4789 C.ar    1  UNL1        0.1491
      6 C         139.4729  143.5247  163.7669 C.ar    1  UNL1        0.0645
      7 I         138.1078  143.9952  163.3608 I       1  UNL1       -0.0394
      8 C         139.6357  142.2050  164.4610 C.ar    1  UNL1        0.0120
      9 C         141.1635  140.4147  165.5614 C.2     1  UNL1        0.1983
     10 O         141.9451  139.3145  164.9068 O.2     1  UNL1       -0.2865
     11 C         139.2066  139.5713  167.1751 C.ar    1  UNL1        0.1258
     12 O         138.9902  139.5518  168.6593 O.2     1  UNL1       -0.4577
     13 C         140.1945  140.1637  169.3115 C.ar    1  UNL1        0.1449
     14 C         140.5404  140.4101  170.7501 C.ar    1  UNL1        0.0375
     15 C         141.8470  141.0542  171.1075 C.ar    1  UNL1        0.0031
     16 C         142.8077  141.4520  170.0264 C.ar    1  UNL1        0.0002
     17 C         142.4618  141.2056  168.5878 C.ar    1  UNL1        0.0032
     18 C         141.1552  140.5614  168.2303 C.ar    1  UNL1        0.0403
     19 C         140.5447  140.1953  166.9100 C.ar    1  UNL1        0.0722
     20 C         138.2525  139.0571  166.1382 C.3     1  UNL1        0.0646
     21 C         138.5459  137.7735  165.4198 C.3     1  UNL1        0.0080
     22 C         138.4987  138.9326  163.0951 C.3     1  UNL1        0.0000
     23 C         138.9362  137.7967  163.9717 C.3     1  UNL1        0.0005
     24 O         140.5127  145.6937  162.7848 O.3     1  UNL1       -0.4731
     25 C         140.2322  145.7368  161.3119 C.3     1  UNL1        0.2227
     26 C         141.0174  144.8696  160.3731 C.3     1  UNL1        0.1200
     27 N         140.6086  143.4438  160.1499 N.3     1  UNL1       -0.2696
     28 C         139.2654  143.1324  159.5590 C.3     1  UNL1        0.0722
     29 C         139.1588  142.6944  158.1283 C.3     1  UNL1        0.0188
     30 C         141.5428  142.3293  160.5176 C.3     1  UNL1        0.0722
     31 C         141.0106  141.0906  161.1752 C.3     1  UNL1        0.0188
@<TRIPOS>BOND
     1    22    23    1
     2    23    21    1
     3    21    20    1
     4    20    11    1
     5    11    12   ar
     6    12    13   ar
     7    13    14   ar
     8    14    15   ar
     9    15    16   ar
    10    16    17   ar
    11    17    18   ar
    12    18    19   ar
    13    19     9    1
    14     9    10    2
    15     9     1    1
    16     1     2   ar
    17     2     3   ar
    18     3     4    1
    19     3     5   ar
    20     5    24    1
    21    24    25    1
    22    25    26    1
    23    26    27    1
    24    27    28    1
    25    28    29    1
    26    27    30    1
    27    30    31    1
    28     5     6   ar
    29     6     7    1
    30     6     8   ar
    31    19    11   ar
    32     8     1   ar
    33    18    13   ar
@<TRIPOS>MOLECULE
*****
 31 33 0 0 0
SMALL
GASTEIGER

@<TRIPOS>ATOM
      1 C         139.4205  140.7147  164.4956 C.ar    1  UNL1        0.0401
      2 C         139.2483  142.0196  165.2150 C.ar    1  UNL1        0.0120
      3 C         138.9379  143.2669  164.4419 C.ar    1  UNL1        0.0645
      4 I         138.7658  144.5719  165.1613 I       1  UNL1       -0.0394
      5 C         138.7998  143.2094  162.9494 C.ar    1  UNL1        0.1491
      6 C         138.9719  141.9045  162.2299 C.ar    1  UNL1        0.0645
      7 I         138.8337  141.8469  160.7374 I       1  UNL1       -0.0394
      8 C         139.2823  140.6572  163.0031 C.ar    1  UNL1        0.0120
      9 C         139.7308  139.4672  165.2688 C.2     1  UNL1        0.1983
     10 O         138.9791  138.2012  164.9828 O.2     1  UNL1       -0.2865
     11 C         142.2472  139.1805  166.1235 C.ar    1  UNL1        0.1258
     12 O         142.9403  139.3193  167.4466 O.2     1  UNL1       -0.4577
     13 C         141.9143  139.7106  168.4685 C.ar    1  UNL1        0.1449
     14 C         142.0172  139.9863  169.9393 C.ar    1  UNL1        0.0375
     15 C         140.7928  140.3652  170.7187 C.ar    1  UNL1        0.0031
     16 C         139.4657  140.4682  170.0273 C.ar    1  UNL1        0.0002
     17 C         139.3629  140.1924  168.5565 C.ar    1  UNL1        0.0032
     18 C         140.5872  139.8136  167.7771 C.ar    1  UNL1        0.0403
     19 C         140.7930  139.4860  166.3278 C.ar    1  UNL1        0.0722
     20 C         142.8947  138.8026  164.8243 C.3     1  UNL1        0.0646
     21 C         143.1963  139.8577  163.8018 C.3     1  UNL1        0.0080
     22 C         145.4570  141.1228  163.9995 C.3     1  UNL1        0.0000
     23 C         144.6076  140.0754  163.3425 C.3     1  UNL1        0.0005
     24 O         138.4894  144.4568  162.1763 O.3     1  UNL1       -0.4731
     25 C         139.5624  145.4773  161.9370 C.3     1  UNL1        0.2227
     26 C         140.7751  145.1159  161.1315 C.3     1  UNL1        0.1200
     27 N         141.9869  144.5520  161.8121 N.3     1  UNL1       -0.2696
     28 C         142.2619  144.8829  163.2492 C.3     1  UNL1        0.0722
     29 C         142.6040  143.7902  164.2182 C.3     1  UNL1        0.0188
     30 C         142.9237  143.6572  161.0559 C.3     1  UNL1        0.0722
     31 C         142.6307  142.1907  160.9406 C.3     1  UNL1        0.0188
@<TRIPOS>BOND
     1    22    23    1
     2    23    21    1
     3    21    20    1
     4    20    11    1
     5    11    12   ar
     6    12    13   ar
     7    13    14   ar
     8    14    15   ar
     9    15    16   ar
    10    16    17   ar
    11    17    18   ar
    12    18    19   ar
    13    19     9    1
    14     9    10    2
    15     9     1    1
    16     1     2   ar
    17     2     3   ar
    18     3     4    1
    19     3     5   ar
    20     5    24    1
    21    24    25    1
    22    25    26    1
    23    26    27    1
    24    27    28    1
    25    28    29    1
    26    27    30    1
    27    30    31    1
    28     5     6   ar
    29     6     7    1
    30     6     8   ar
    31    19    11   ar
    32     8     1   ar
    33    18    13   ar
@<TRIPOS>MOLECULE
*****
 31 33 0 0 0
SMALL
GASTEIGER

@<TRIPOS>ATOM
      1 C         142.0523  142.9082  164.9034 C.ar    1  UNL1        0.0401
      2 C         140.7050  143.4194  165.3199 C.ar    1  UNL1        0.0120
      3 C         139.6719  143.7428  164.2817 C.ar    1  UNL1        0.0645
      4 I         138.3246  144.2540  164.6982 I       1  UNL1       -0.0394
      5 C         139.9860  143.5550  162.8270 C.ar    1  UNL1        0.1491
      6 C         141.3333  143.0438  162.4105 C.ar    1  UNL1        0.0645
      7 I         141.6473  142.8560  160.9559 I       1  UNL1       -0.0394
      8 C         142.3664  142.7204  163.4488 C.ar    1  UNL1        0.0120
      9 C         143.0856  142.5847  165.9417 C.2     1  UNL1        0.1983
     10 O         144.2980  143.4553  166.0897 O.2     1  UNL1       -0.2865
     11 C         143.0040  139.9544  166.4105 C.ar    1  UNL1        0.1258
     12 O         142.7559  139.0995  167.6178 O.2     1  UNL1       -0.4577
     13 C         142.5048  140.0074  168.7851 C.ar    1  UNL1        0.1449
     14 C         142.2036  139.7276  170.2277 C.ar    1  UNL1        0.0375
     15 C         141.9953  140.8640  171.1844 C.ar    1  UNL1        0.0031
     16 C         142.0882  142.2801  170.6986 C.ar    1  UNL1        0.0002
     17 C         142.3895  142.5598  169.2560 C.ar    1  UNL1        0.0032
     18 C         142.5978  141.4235  168.2993 C.ar    1  UNL1        0.0403
     19 C         142.9063  141.3907  166.8318 C.ar    1  UNL1        0.0722
     20 C         143.2982  139.4599  165.0253 C.3     1  UNL1        0.0646
     21 C         144.7040  139.4853  164.5027 C.3     1  UNL1        0.0080
     22 C         145.8804  141.6229  163.6100 C.3     1  UNL1        0.0000
     23 C         145.0636  140.3896  163.3612 C.3     1  UNL1        0.0005
     24 O         138.9527  143.8784  161.7888 O.3     1  UNL1       -0.4731
     25 C         138.1858  142.7738  161.1244 C.3     1  UNL1        0.2227
     26 C         137.7436  141.5826  161.9218 C.3     1  UNL1        0.1200
     27 N         138.6723  140.4200  162.1109 N.3     1  UNL1       -0.2696
     28 C         139.0342  139.5515  160.9427 C.3     1  UNL1        0.0722
     29 C         139.1678  138.0685  161.1236 C.3     1  UNL1        0.0188
     30 C         139.2390  140.1258  163.4682 C.3     1  UNL1        0.0722
     31 C         138.3287  140.0310  164.6567 C.3     1  UNL1        0.0188
@<TRIPOS>BOND
     1    22    23    1
     2    23    21    1
     3    21    20    1
     4    20    11    1
     5    11    12   ar
     6    12    13   ar
     7    13    14   ar
     8    14    15   ar
     9    15    16   ar
    10    16    17   ar
    11    17    18   ar
    12    18    19   ar
    13    19     9    1
    14     9    10    2
    15     9     1    1
    16     1     2   ar
    17     2     3   ar
    18     3     4    1
    19     3     5   ar
    20     5    24    1
    21    24    25    1
    22    25    26    1
    23    26    27    1
    24    27    28    1
    25    28    29    1
    26    27    30    1
    27    30    31    1
    28     5     6   ar
    29     6     7    1
    30     6     8   ar
    31    19    11   ar
    32     8     1   ar
    33    18    13   ar
@<TRIPOS>MOLECULE
*****
 31 33 0 0 0
SMALL
GASTEIGER

@<TRIPOS>ATOM
      1 C         141.0615  141.7417  164.8817 C.ar    1  UNL1        0.0401
      2 C         139.7011  142.1337  164.3862 C.ar    1  UNL1        0.0120
      3 C         139.5127  143.4332  163.6611 C.ar    1  UNL1        0.0645
      4 I         138.1522  143.8251  163.1657 I       1  UNL1       -0.0394
      5 C         140.6847  144.3407  163.4315 C.ar    1  UNL1        0.1491
      6 C         142.0452  143.9488  163.9269 C.ar    1  UNL1        0.0645
      7 I         143.2172  144.8563  163.6972 I       1  UNL1       -0.0394
      8 C         142.2336  142.6493  164.6520 C.ar    1  UNL1        0.0120
      9 C         141.2500  140.4422  165.6068 C.2     1  UNL1        0.1983
     10 O         142.0874  139.3576  164.9967 O.2     1  UNL1       -0.2865
     11 C         139.2355  139.6525  167.1763 C.ar    1  UNL1        0.1258
     12 O         138.9942  139.6196  168.6563 O.2     1  UNL1       -0.4577
     13 C         140.2106  140.1741  169.3368 C.ar    1  UNL1        0.1449
     14 C         140.5421  140.3855  170.7843 C.ar    1  UNL1        0.0375
     15 C         141.8668  140.9726  171.1722 C.ar    1  UNL1        0.0031
     16 C         142.8599  141.3482  170.1127 C.ar    1  UNL1        0.0002
     17 C         142.5283  141.1368  168.6652 C.ar    1  UNL1        0.0032
     18 C         141.2036  140.5497  168.2772 C.ar    1  UNL1        0.0403
     19 C         140.6010  140.2274  166.9420 C.ar    1  UNL1        0.0722
     20 C         138.2792  139.1915  166.1165 C.3     1  UNL1        0.0646
     21 C         138.6476  138.0460  165.2209 C.3     1  UNL1        0.0080
     22 C         139.8645  137.6003  162.9691 C.3     1  UNL1        0.0000
     23 C         138.7582  138.2574  163.7400 C.3     1  UNL1        0.0005
     24 O         140.4962  145.6402  162.7063 O.3     1  UNL1       -0.4731
     25 C         140.3471  145.6514  161.2138 C.3     1  UNL1        0.2227
     26 C         141.1373  144.6923  160.3738 C.3     1  UNL1        0.1200
     27 N         140.6054  143.3157  160.1058 N.3     1  UNL1       -0.2696
     28 C         139.3373  143.1408  159.3237 C.3     1  UNL1        0.0722
     29 C         138.4813  141.9289  159.5441 C.3     1  UNL1        0.0188
     30 C         141.3413  142.1140  160.6199 C.3     1  UNL1        0.0722
     31 C         142.8372  142.1399  160.7275 C.3     1  UNL1        0.0188
@<TRIPOS>BOND
     1    22    23    1
     2    23    21    1
     3    21    20    1
     4    20    11    1
     5    11    12   ar
     6    12    13   ar
     7    13    14   ar
     8    14    15   ar
     9    15    16   ar
    10    16    17   ar
    11    17    18   ar
    12    18    19   ar
    13    19     9    1
    14     9    10    2
    15     9     1    1
    16     1     2   ar
    17     2     3   ar
    18     3     4    1
    19     3     5   ar
    20     5    24    1
    21    24    25    1
    22    25    26    1
    23    26    27    1
    24    27    28    1
    25    28    29    1
    26    27    30    1
    27    30    31    1
    28     5     6   ar
    29     6     7    1
    30     6     8   ar
    31    19    11   ar
    32     8     1   ar
    33    18    13   ar
@<TRIPOS>MOLECULE
*****
 31 33 0 0 0
SMALL
GASTEIGER

@<TRIPOS>ATOM
      1 C         138.9933  140.5320  165.1204 C.ar    1  UNL1        0.0401
      2 C         138.6339  140.0416  163.7491 C.ar    1  UNL1        0.0120
      3 C         138.3873  141.0235  162.6424 C.ar    1  UNL1        0.0645
      4 I         138.0279  140.5332  161.2711 I       1  UNL1       -0.0394
      5 C         138.5002  142.4957  162.9068 C.ar    1  UNL1        0.1491
      6 C         138.8596  142.9861  164.2781 C.ar    1  UNL1        0.0645
      7 I         138.9724  144.4582  164.5425 I       1  UNL1       -0.0394
      8 C         139.1061  142.0042  165.3848 C.ar    1  UNL1        0.0120
      9 C         139.2399  139.5501  166.2273 C.2     1  UNL1        0.1983
     10 O         138.1841  138.5484  166.5903 O.2     1  UNL1       -0.2865
     11 C         141.8620  139.0818  166.4515 C.ar    1  UNL1        0.1258
     12 O         142.8890  139.2916  167.5245 O.2     1  UNL1       -0.4577
     13 C         142.2040  139.9094  168.7073 C.ar    1  UNL1        0.1449
     14 C         142.7135  140.3375  170.0516 C.ar    1  UNL1        0.0375
     15 C         141.7727  140.9376  171.0539 C.ar    1  UNL1        0.0031
     16 C         140.3223  141.1096  170.7119 C.ar    1  UNL1        0.0002
     17 C         139.8128  140.6815  169.3677 C.ar    1  UNL1        0.0032
     18 C         140.7536  140.0814  168.3654 C.ar    1  UNL1        0.0403
     19 C         140.5423  139.5699  166.9712 C.ar    1  UNL1        0.0722
     20 C         142.1110  138.4881  165.0966 C.3     1  UNL1        0.0646
     21 C         141.3863  137.2432  164.6786 C.3     1  UNL1        0.0080
     22 C         141.4932  137.7302  162.1287 C.3     1  UNL1        0.0000
     23 C         140.7731  137.1553  163.3124 C.3     1  UNL1        0.0005
     24 O         138.2536  143.4776  161.7999 O.3     1  UNL1       -0.4731
     25 C         139.4117  144.1051  161.0823 C.3     1  UNL1        0.2227
     26 C         140.6977  143.3485  160.9281 C.3     1  UNL1        0.1200
     27 N         141.8276  143.5870  161.8853 N.3     1  UNL1       -0.2696
     28 C         142.6937  142.4432  162.3231 C.3     1  UNL1        0.0722
     29 C         142.0783  141.2489  162.9900 C.3     1  UNL1        0.0188
     30 C         142.0915  144.9693  162.4046 C.3     1  UNL1        0.0722
     31 C         142.8766  145.1583  163.6687 C.3     1  UNL1        0.0188
@<TRIPOS>BOND
     1    22    23    1
     2    23    21    1
     3    21    20    1
     4    20    11    1
     5    11    12   ar
     6    12    13   ar
     7    13    14   ar
     8    14    15   ar
     9    15    16   ar
    10    16    17   ar
    11    17    18   ar
    12    18    19   ar
    13    19     9    1
    14     9    10    2
    15     9     1    1
    16     1     2   ar
    17     2     3   ar
    18     3     4    1
    19     3     5   ar
    20     5    24    1
    21    24    25    1
    22    25    26    1
    23    26    27    1
    24    27    28    1
    25    28    29    1
    26    27    30    1
    27    30    31    1
    28     5     6   ar
    29     6     7    1
    30     6     8   ar
    31    19    11   ar
    32     8     1   ar
    33    18    13   ar
@<TRIPOS>MOLECULE
*****
 31 33 0 0 0
SMALL
GASTEIGER

@<TRIPOS>ATOM
      1 C         142.0945  141.0460  164.7336 C.ar    1  UNL1        0.0401
      2 C         141.4166  140.7029  163.4403 C.ar    1  UNL1        0.0120
      3 C         141.4180  141.6874  162.3086 C.ar    1  UNL1        0.0645
      4 I         140.7400  141.3444  161.0153 I       1  UNL1       -0.0394
      5 C         142.0973  143.0150  162.4702 C.ar    1  UNL1        0.1491
      6 C         142.7753  143.3580  163.7635 C.ar    1  UNL1        0.0645
      7 I         143.4546  144.6856  163.9252 I       1  UNL1       -0.0394
      8 C         142.7739  142.3735  164.8952 C.ar    1  UNL1        0.0120
      9 C         142.0932  140.0614  165.8653 C.2     1  UNL1        0.1983
     10 O         142.8540  138.7748  165.7409 O.2     1  UNL1       -0.2865
     11 C         139.9224  139.9436  167.4206 C.ar    1  UNL1        0.1258
     12 O         139.5644  140.4593  168.7829 O.2     1  UNL1       -0.4577
     13 C         140.7517  141.1981  169.3256 C.ar    1  UNL1        0.1449
     14 C         140.9797  141.9170  170.6222 C.ar    1  UNL1        0.0375
     15 C         142.2995  142.5768  170.8919 C.ar    1  UNL1        0.0031
     16 C         143.3913  142.5176  169.8650 C.ar    1  UNL1        0.0002
     17 C         143.1633  141.7987  168.5685 C.ar    1  UNL1        0.0032
     18 C         141.8435  141.1389  168.2988 C.ar    1  UNL1        0.0403
     19 C         141.3309  140.3636  167.1214 C.ar    1  UNL1        0.0722
     20 C         139.0287  139.1475  166.5163 C.3     1  UNL1        0.0646
     21 C         138.3526  139.8131  165.3545 C.3     1  UNL1        0.0080
     22 C         139.0519  137.8393  163.8167 C.3     1  UNL1        0.0000
     23 C         138.3614  139.1575  164.0054 C.3     1  UNL1        0.0005
     24 O         142.0986  143.9994  161.3385 O.3     1  UNL1       -0.4731
     25 C         140.9015  144.8716  161.1018 C.3     1  UNL1        0.2227
     26 C         140.1941  145.5058  162.2627 C.3     1  UNL1        0.1200
     27 N         139.1429  144.7399  163.0097 N.3     1  UNL1       -0.2696
     28 C         138.2222  143.8143  162.2708 C.3     1  UNL1        0.0722
     29 C         137.5628  142.6775  162.9939 C.3     1  UNL1        0.0188
     30 C         139.0121  144.8995  164.4954 C.3     1  UNL1        0.0722
     31 C         139.5789  143.8582  165.4143 C.3     1  UNL1        0.0188
@<TRIPOS>BOND
     1    22    23    1
     2    23    21    1
     3    21    20    1
     4    20    11    1
     5    11    12   ar
     6    12    13   ar
     7    13    14   ar
     8    14    15   ar
     9    15    16   ar
    10    16    17   ar
    11    17    18   ar
    12    18    19   ar
    13    19     9    1
    14     9    10    2
    15     9     1    1
    16     1     2   ar
    17     2     3   ar
    18     3     4    1
    19     3     5   ar
    20     5    24    1
    21    24    25    1
    22    25    26    1
    23    26    27    1
    24    27    28    1
    25    28    29    1
    26    27    30    1
    27    30    31    1
    28     5     6   ar
    29     6     7    1
    30     6     8   ar
    31    19    11   ar
    32     8     1   ar
    33    18    13   ar
@<TRIPOS>MOLECULE
*****
 31 33 0 0 0
SMALL
GASTEIGER

@<TRIPOS>ATOM
      1 C         141.1749  140.9974  163.7593 C.ar    1  UNL1        0.0401
      2 C         141.2138  142.4412  164.1640 C.ar    1  UNL1        0.0120
      3 C         141.6816  143.4809  163.1892 C.ar    1  UNL1        0.0645
      4 I         141.7205  144.9248  163.5940 I       1  UNL1       -0.0394
      5 C         142.1105  143.0769  161.8098 C.ar    1  UNL1        0.1491
      6 C         142.0716  141.6330  161.4051 C.ar    1  UNL1        0.0645
      7 I         142.5005  141.2289  160.0257 I       1  UNL1       -0.0394
      8 C         141.6038  140.5933  162.3799 C.ar    1  UNL1        0.0120
      9 C         140.7071  139.9576  164.7340 C.2     1  UNL1        0.1983
     10 O         139.4318  139.2103  164.4789 O.2     1  UNL1       -0.2865
     11 C         142.9147  139.1274  165.9920 C.ar    1  UNL1        0.1258
     12 O         143.3292  138.9890  167.4269 O.2     1  UNL1       -0.4577
     13 C         142.1853  139.4411  168.2855 C.ar    1  UNL1        0.1449
     14 C         142.0201  139.5262  169.7739 C.ar    1  UNL1        0.0375
     15 C         140.7333  140.0292  170.3581 C.ar    1  UNL1        0.0031
     16 C         139.6119  140.4471  169.4538 C.ar    1  UNL1        0.0002
     17 C         139.7771  140.3619  167.9654 C.ar    1  UNL1        0.0032
     18 C         141.0639  139.8589  167.3813 C.ar    1  UNL1        0.0403
     19 C         141.5146  139.6651  165.9638 C.ar    1  UNL1        0.0722
     20 C         143.7530  138.7879  164.7953 C.3     1  UNL1        0.0646
     21 C         144.8935  139.6789  164.4014 C.3     1  UNL1        0.0080
     22 C         145.3547  142.0053  163.3405 C.3     1  UNL1        0.0000
     23 C         144.7195  141.1687  164.4114 C.3     1  UNL1        0.0005
     24 O         142.5783  144.1166  160.8352 O.3     1  UNL1       -0.4731
     25 C         141.6379  144.6440  159.7923 C.3     1  UNL1        0.2227
     26 C         140.1573  144.6067  160.0297 C.3     1  UNL1        0.1200
     27 N         139.3259  143.5213  159.4128 N.3     1  UNL1       -0.2696
     28 C         138.6533  142.5038  160.2859 C.3     1  UNL1        0.0722
     29 C         138.2951  142.8492  161.7010 C.3     1  UNL1        0.0188
     30 C         139.1672  143.4533  157.9227 C.3     1  UNL1        0.0722
     31 C         140.1857  142.7303  157.0922 C.3     1  UNL1        0.0188
@<TRIPOS>BOND
     1    22    23    1
     2    23    21    1
     3    21    20    1
     4    20    11    1
     5    11    12   ar
     6    12    13   ar
     7    13    14   ar
     8    14    15   ar
     9    15    16   ar
    10    16    17   ar
    11    17    18   ar
    12    18    19   ar
    13    19     9    1
    14     9    10    2
    15     9     1    1
    16     1     2   ar
    17     2     3   ar
    18     3     4    1
    19     3     5   ar
    20     5    24    1
    21    24    25    1
    22    25    26    1
    23    26    27    1
    24    27    28    1
    25    28    29    1
    26    27    30    1
    27    30    31    1
    28     5     6   ar
    29     6     7    1
    30     6     8   ar
    31    19    11   ar
    32     8     1   ar
    33    18    13   ar
