@<TRIPOS>MOLECULE
*****
 34 38 0 0 0
SMALL
GASTEIGER

@<TRIPOS>ATOM
      1 C         140.5771  138.5692  163.3672 C.ar    1  UNL1        0.0016
      2 C         139.2685  137.9014  163.6697 C.ar    1  UNL1        0.0016
      3 C         138.6262  138.0840  165.0129 C.ar    1  UNL1        0.0191
      4 C         139.2925  138.9345  166.0534 C.ar    1  UNL1        0.0828
      5 N         138.6502  139.1171  167.3966 N.ar    1  UNL1       -0.2422
      6 C         139.3165  139.9675  168.4372 C.ar    1  UNL1        0.1175
      7 C         140.6251  140.6353  168.1346 C.ar    1  UNL1        0.0989
      8 C         141.2674  140.4527  166.7915 C.ar    1  UNL1        0.0826
      9 C         140.6011  139.6022  165.7509 C.ar    1  UNL1        0.0350
     10 C         141.2434  139.4196  164.4078 C.ar    1  UNL1        0.0030
     11 N         142.5503  141.2299  166.7817 N.ar    1  UNL1       -0.2792
     12 C         142.7009  141.8928  168.1188 C.ar    1  UNL1        0.3317
     13 O         143.8411  142.7694  168.5449 O.2     1  UNL1       -0.2463
     14 N         141.5110  141.5254  168.9549 N.ar    1  UNL1       -0.2765
     15 C         141.2525  141.9699  170.3640 C.3     1  UNL1        0.1352
     16 C         142.5042  138.0213  159.3377 C.ar    1  UNL1        0.2249
     17 C         143.3053  137.8068  160.5875 C.ar    1  UNL1        0.0577
     18 C         142.6630  137.9895  161.9307 C.ar    1  UNL1        0.0063
     19 C         141.2195  138.3866  162.0240 C.ar    1  UNL1        0.0194
     20 C         140.4184  138.6010  160.7741 C.ar    1  UNL1        0.1020
     21 N         141.0607  138.4184  159.4310 N.ar    1  UNL1       -0.2101
     22 O         143.1465  137.8387  157.9945 O.3     1  UNL1       -0.4602
     23 C         142.6606  136.7612  157.0711 C.3     1  UNL1        0.2085
     24 C         143.6244  136.0686  156.1537 C.3     1  UNL1        0.0647
     25 C         143.1546  134.9378  155.2875 C.3     1  UNL1        0.0760
     26 C         143.2193  133.0976  157.1204 C.3     1  UNL1        0.0897
     27 N         142.5694  133.7067  155.9134 N.3     1  UNL1       -0.2702
     28 C         141.3343  133.0846  155.3324 C.3     1  UNL1        0.0897
     29 C         143.5136  141.3270  165.6359 C.3     1  UNL1        0.1194
     30 C         144.2103  140.0965  165.1355 C.3     1  UNL1        0.0279
     31 C         145.1736  140.1936  163.9897 C.3     1  UNL1        0.0341
     32 C         145.4401  141.5212  163.3444 C.3     1  UNL1        0.1423
     33 O         144.7433  142.7517  163.8448 O.3     1  UNL1       -0.3518
     34 C         143.7801  142.6546  164.9906 C.3     1  UNL1        0.1647
@<TRIPOS>BOND
     1    26    27    1
     2    27    28    1
     3    27    25    1
     4    25    24    1
     5    24    23    1
     6    23    22    1
     7    22    16    1
     8    16    17   ar
     9    17    18   ar
    10    18    19   ar
    11    19     1    1
    12     1     2   ar
    13     2     3   ar
    14     3     4   ar
    15     4     5   ar
    16     5     6   ar
    17     6     7   ar
    18     7     8   ar
    19     8     9   ar
    20     9    10   ar
    21     8    11   ar
    22    29    11    1
    23    29    30    1
    24    30    31    1
    25    31    32    1
    26    32    33    1
    27    33    34    1
    28    11    12   ar
    29    12    13    2
    30    12    14   ar
    31    14    15    1
    32    19    20   ar
    33    20    21   ar
    34    21    16   ar
    35    10     1   ar
    36    34    29    1
    37     9     4   ar
    38    14     7   ar
@<TRIPOS>MOLECULE
*****
 34 38 0 0 0
SMALL
GASTEIGER

@<TRIPOS>ATOM
      1 C         141.7762  142.5961  164.0384 C.ar    1  UNL1        0.0016
      2 C         142.3017  144.0007  164.0110 C.ar    1  UNL1        0.0016
      3 C         142.0273  144.8812  162.8280 C.ar    1  UNL1        0.0191
      4 C         141.2274  144.3570  161.6724 C.ar    1  UNL1        0.0828
      5 N         140.9530  145.2375  160.4894 N.ar    1  UNL1       -0.2422
      6 C         140.1530  144.7133  159.3339 C.ar    1  UNL1        0.1175
      7 C         139.6275  143.3086  159.3613 C.ar    1  UNL1        0.0989
      8 C         139.9019  142.4281  160.5443 C.ar    1  UNL1        0.0826
      9 C         140.7019  142.9523  161.6998 C.ar    1  UNL1        0.0350
     10 C         140.9763  142.0719  162.8828 C.ar    1  UNL1        0.0030
     11 N         139.2589  141.0969  160.2904 N.ar    1  UNL1       -0.2792
     12 C         138.5871  141.1547  158.9505 C.ar    1  UNL1        0.3317
     13 O         137.8218  140.0410  158.2991 O.2     1  UNL1       -0.2463
     14 N         138.8149  142.5216  158.3763 N.ar    1  UNL1       -0.2765
     15 C         138.3175  143.0148  157.0499 C.3     1  UNL1        0.1352
     16 C         142.5995  139.9546  167.5874 C.ar    1  UNL1        0.2249
     17 C         141.8212  139.4223  166.4208 C.ar    1  UNL1        0.0577
     18 C         141.5468  140.3028  165.2378 C.ar    1  UNL1        0.0063
     19 C         142.0506  141.7156  165.2214 C.ar    1  UNL1        0.0194
     20 C         142.8289  142.2479  166.3880 C.ar    1  UNL1        0.1020
     21 N         143.1033  141.3674  167.5710 N.ar    1  UNL1       -0.2101
     22 O         142.8739  139.0742  168.7704 O.3     1  UNL1       -0.4602
     23 C         142.1718  139.3262  170.0717 C.3     1  UNL1        0.2085
     24 C         140.9554  140.2031  170.1101 C.3     1  UNL1        0.0647
     25 C         140.9286  141.4098  171.0006 C.3     1  UNL1        0.0760
     26 C         140.4692  143.7179  169.8996 C.3     1  UNL1        0.0897
     27 N         141.4293  142.7289  170.4914 N.3     1  UNL1       -0.2702
     28 C         142.8902  143.0590  170.5739 C.3     1  UNL1        0.0897
     29 C         139.2835  139.9155  161.2142 C.3     1  UNL1        0.1194
     30 C         138.3666  139.8719  162.4006 C.3     1  UNL1        0.0279
     31 C         138.3910  138.6904  163.3245 C.3     1  UNL1        0.0341
     32 C         139.3325  137.5525  163.0620 C.3     1  UNL1        0.1423
     33 O         140.2493  137.5961  161.8757 O.3     1  UNL1       -0.3518
     34 C         140.2249  138.7775  160.9518 C.3     1  UNL1        0.1647
@<TRIPOS>BOND
     1    26    27    1
     2    27    28    1
     3    27    25    1
     4    25    24    1
     5    24    23    1
     6    23    22    1
     7    22    16    1
     8    16    17   ar
     9    17    18   ar
    10    18    19   ar
    11    19     1    1
    12     1     2   ar
    13     2     3   ar
    14     3     4   ar
    15     4     5   ar
    16     5     6   ar
    17     6     7   ar
    18     7     8   ar
    19     8     9   ar
    20     9    10   ar
    21     8    11   ar
    22    29    11    1
    23    29    30    1
    24    30    31    1
    25    31    32    1
    26    32    33    1
    27    33    34    1
    28    11    12   ar
    29    12    13    2
    30    12    14   ar
    31    14    15    1
    32    19    20   ar
    33    20    21   ar
    34    21    16   ar
    35    10     1   ar
    36    34    29    1
    37     9     4   ar
    38    14     7   ar
@<TRIPOS>MOLECULE
*****
 34 38 0 0 0
SMALL
GASTEIGER

@<TRIPOS>ATOM
      1 C         138.9349  139.3995  163.5215 C.ar    1  UNL1        0.0016
      2 C         138.7255  138.0618  162.8760 C.ar    1  UNL1        0.0016
      3 C         138.7173  137.9438  161.3807 C.ar    1  UNL1        0.0191
      4 C         138.9185  139.1634  160.5310 C.ar    1  UNL1        0.0828
      5 N         138.9103  139.0453  159.0356 N.ar    1  UNL1       -0.2422
      6 C         139.1116  140.2649  158.1858 C.ar    1  UNL1        0.1175
      7 C         139.3210  141.6026  158.8315 C.ar    1  UNL1        0.0989
      8 C         139.3292  141.7207  160.3268 C.ar    1  UNL1        0.0826
      9 C         139.1280  140.5011  161.1765 C.ar    1  UNL1        0.0350
     10 C         139.1362  140.6191  162.6718 C.ar    1  UNL1        0.0030
     11 N         139.5572  143.1613  160.6767 N.ar    1  UNL1       -0.2792
     12 C         139.6899  143.9336  159.3977 C.ar    1  UNL1        0.3317
     13 O         139.9270  145.4101  159.2798 O.2     1  UNL1       -0.2463
     14 N         139.5439  142.9703  158.2572 N.ar    1  UNL1       -0.2765
     15 C         139.6094  143.3142  156.7987 C.3     1  UNL1        0.1352
     16 C         138.9595  139.7538  168.0076 C.ar    1  UNL1        0.2249
     17 C         139.7342  140.7309  167.1738 C.ar    1  UNL1        0.0577
     18 C         139.7260  140.6128  165.6785 C.ar    1  UNL1        0.0063
     19 C         138.9432  139.5176  165.0169 C.ar    1  UNL1        0.0194
     20 C         138.1685  138.5405  165.8507 C.ar    1  UNL1        0.1020
     21 N         138.1767  138.6585  167.3459 N.ar    1  UNL1       -0.2101
     22 O         138.9677  139.8718  169.5029 O.3     1  UNL1       -0.4602
     23 C         140.0563  140.6432  170.1883 C.3     1  UNL1        0.2085
     24 C         141.3961  140.0083  170.4163 C.3     1  UNL1        0.0647
     25 C         142.5497  140.3488  169.5201 C.3     1  UNL1        0.0760
     26 C         142.9883  142.7806  170.3226 C.3     1  UNL1        0.0897
     27 N         142.8604  141.7830  169.2096 N.3     1  UNL1       -0.2702
     28 C         143.0432  142.2197  167.7863 C.3     1  UNL1        0.0897
     29 C         139.6382  143.7298  162.0624 C.3     1  UNL1        0.1194
     30 C         140.9627  143.8167  162.7611 C.3     1  UNL1        0.0279
     31 C         141.0439  144.3852  164.1469 C.3     1  UNL1        0.0341
     32 C         139.8005  144.8668  164.8339 C.3     1  UNL1        0.1423
     33 O         138.4760  144.7800  164.1352 O.3     1  UNL1       -0.3518
     34 C         138.3949  144.2115  162.7495 C.3     1  UNL1        0.1647
@<TRIPOS>BOND
     1    26    27    1
     2    27    28    1
     3    27    25    1
     4    25    24    1
     5    24    23    1
     6    23    22    1
     7    22    16    1
     8    16    17   ar
     9    17    18   ar
    10    18    19   ar
    11    19     1    1
    12     1     2   ar
    13     2     3   ar
    14     3     4   ar
    15     4     5   ar
    16     5     6   ar
    17     6     7   ar
    18     7     8   ar
    19     8     9   ar
    20     9    10   ar
    21     8    11   ar
    22    29    11    1
    23    29    30    1
    24    30    31    1
    25    31    32    1
    26    32    33    1
    27    33    34    1
    28    11    12   ar
    29    12    13    2
    30    12    14   ar
    31    14    15    1
    32    19    20   ar
    33    20    21   ar
    34    21    16   ar
    35    10     1   ar
    36    34    29    1
    37     9     4   ar
    38    14     7   ar
@<TRIPOS>MOLECULE
*****
 34 38 0 0 0
SMALL
GASTEIGER

@<TRIPOS>ATOM
      1 C         140.6132  143.1197  164.6008 C.ar    1  UNL1        0.0016
      2 C         139.5448  144.1276  164.9049 C.ar    1  UNL1        0.0016
      3 C         139.1280  145.1176  163.8581 C.ar    1  UNL1        0.0191
      4 C         139.7796  145.0998  162.5071 C.ar    1  UNL1        0.0828
      5 N         139.3627  146.0900  161.4603 N.ar    1  UNL1       -0.2422
      6 C         140.0143  146.0722  160.1093 C.ar    1  UNL1        0.1175
      7 C         141.0828  145.0642  159.8052 C.ar    1  UNL1        0.0989
      8 C         141.4996  144.0741  160.8521 C.ar    1  UNL1        0.0826
      9 C         140.8480  144.0919  162.2030 C.ar    1  UNL1        0.0350
     10 C         141.2648  143.1018  163.2499 C.ar    1  UNL1        0.0030
     11 N         142.5729  143.2049  160.2668 N.ar    1  UNL1       -0.2792
     12 C         142.8194  143.6578  158.8582 C.ar    1  UNL1        0.3317
     13 O         143.8125  143.0656  157.9026 O.2     1  UNL1       -0.2463
     14 N         141.8984  144.8070  158.5729 N.ar    1  UNL1       -0.2765
     15 C         141.8088  145.5656  157.2820 C.3     1  UNL1        0.1352
     16 C         141.8638  140.1492  167.7414 C.ar    1  UNL1        0.2249
     17 C         142.7169  141.3514  167.4641 C.ar    1  UNL1        0.0577
     18 C         142.3001  142.3416  166.4172 C.ar    1  UNL1        0.0063
     19 C         141.0301  142.1295  165.6477 C.ar    1  UNL1        0.0194
     20 C         140.1770  140.9273  165.9250 C.ar    1  UNL1        0.1020
     21 N         140.5938  139.9372  166.9718 N.ar    1  UNL1       -0.2101
     22 O         142.2806  139.1591  168.7882 O.3     1  UNL1       -0.4602
     23 C         141.9901  139.4299  170.2346 C.3     1  UNL1        0.2085
     24 C         140.7933  140.2486  170.6187 C.3     1  UNL1        0.0647
     25 C         140.9773  141.5712  171.3019 C.3     1  UNL1        0.0760
     26 C         142.8909  143.1915  170.6214 C.3     1  UNL1        0.0897
     27 N         141.4583  142.7581  170.5210 N.3     1  UNL1       -0.2702
     28 C         140.5068  143.5117  169.6397 C.3     1  UNL1        0.0897
     29 C         143.2762  142.0803  160.9671 C.3     1  UNL1        0.1194
     30 C         142.6588  140.7136  160.9987 C.3     1  UNL1        0.0279
     31 C         143.3620  139.5888  161.6991 C.3     1  UNL1        0.0341
     32 C         144.6827  139.8309  162.3679 C.3     1  UNL1        0.1423
     33 O         145.3001  141.1975  162.3363 O.3     1  UNL1       -0.3518
     34 C         144.5969  142.3222  161.6359 C.3     1  UNL1        0.1647
@<TRIPOS>BOND
     1    26    27    1
     2    27    28    1
     3    27    25    1
     4    25    24    1
     5    24    23    1
     6    23    22    1
     7    22    16    1
     8    16    17   ar
     9    17    18   ar
    10    18    19   ar
    11    19     1    1
    12     1     2   ar
    13     2     3   ar
    14     3     4   ar
    15     4     5   ar
    16     5     6   ar
    17     6     7   ar
    18     7     8   ar
    19     8     9   ar
    20     9    10   ar
    21     8    11   ar
    22    29    11    1
    23    29    30    1
    24    30    31    1
    25    31    32    1
    26    32    33    1
    27    33    34    1
    28    11    12   ar
    29    12    13    2
    30    12    14   ar
    31    14    15    1
    32    19    20   ar
    33    20    21   ar
    34    21    16   ar
    35    10     1   ar
    36    34    29    1
    37     9     4   ar
    38    14     7   ar
@<TRIPOS>MOLECULE
*****
 34 38 0 0 0
SMALL
GASTEIGER

@<TRIPOS>ATOM
      1 C         142.9950  142.4515  163.8444 C.ar    1  UNL1        0.0016
      2 C         144.1597  143.1818  164.4444 C.ar    1  UNL1        0.0016
      3 C         144.3350  143.2189  165.9337 C.ar    1  UNL1        0.0191
      4 C         143.3457  142.5256  166.8228 C.ar    1  UNL1        0.0828
      5 N         143.5211  142.5627  168.3121 N.ar    1  UNL1       -0.2422
      6 C         142.5317  141.8695  169.2013 C.ar    1  UNL1        0.1175
      7 C         141.3670  141.1391  168.6012 C.ar    1  UNL1        0.0989
      8 C         141.1917  141.1021  167.1119 C.ar    1  UNL1        0.0826
      9 C         142.1810  141.7953  166.2228 C.ar    1  UNL1        0.0350
     10 C         142.0057  141.7582  164.7335 C.ar    1  UNL1        0.0030
     11 N         139.9547  140.3089  166.8105 N.ar    1  UNL1       -0.2792
     12 C         139.3656  139.8558  168.1134 C.ar    1  UNL1        0.3317
     13 O         138.1220  139.0339  168.2803 O.2     1  UNL1       -0.2463
     14 N         140.2385  140.3689  169.2201 N.ar    1  UNL1       -0.2765
     15 C         140.0210  140.1502  170.6881 C.3     1  UNL1        0.1352
     16 C         142.4689  142.3402  159.3765 C.ar    1  UNL1        0.2249
     17 C         142.0635  141.1601  160.2091 C.ar    1  UNL1        0.0577
     18 C         142.2389  141.1972  161.6984 C.ar    1  UNL1        0.0063
     19 C         142.8196  142.4144  162.3551 C.ar    1  UNL1        0.0194
     20 C         143.2250  143.5944  161.5225 C.ar    1  UNL1        0.1020
     21 N         143.0497  143.5574  160.0333 N.ar    1  UNL1       -0.2101
     22 O         142.2935  142.3031  157.8873 O.3     1  UNL1       -0.4602
     23 C         141.3386  143.2486  157.2209 C.3     1  UNL1        0.2085
     24 C         140.0662  143.6404  157.9119 C.3     1  UNL1        0.0647
     25 C         140.0378  144.8456  158.8044 C.3     1  UNL1        0.0760
     26 C         139.2379  143.3877  160.8006 C.3     1  UNL1        0.0897
     27 N         139.7721  144.6859  160.2720 N.3     1  UNL1       -0.2702
     28 C         140.0405  145.8244  161.2110 C.3     1  UNL1        0.0897
     29 C         139.4037  140.0197  165.4457 C.3     1  UNL1        0.1194
     30 C         139.8702  138.8114  164.6891 C.3     1  UNL1        0.0279
     31 C         139.3192  138.5220  163.3243 C.3     1  UNL1        0.0341
     32 C         138.3017  139.4411  162.7160 C.3     1  UNL1        0.1423
     33 O         137.8352  140.6494  163.4726 O.3     1  UNL1       -0.3518
     34 C         138.3861  140.9387  164.8373 C.3     1  UNL1        0.1647
@<TRIPOS>BOND
     1    26    27    1
     2    27    28    1
     3    27    25    1
     4    25    24    1
     5    24    23    1
     6    23    22    1
     7    22    16    1
     8    16    17   ar
     9    17    18   ar
    10    18    19   ar
    11    19     1    1
    12     1     2   ar
    13     2     3   ar
    14     3     4   ar
    15     4     5   ar
    16     5     6   ar
    17     6     7   ar
    18     7     8   ar
    19     8     9   ar
    20     9    10   ar
    21     8    11   ar
    22    29    11    1
    23    29    30    1
    24    30    31    1
    25    31    32    1
    26    32    33    1
    27    33    34    1
    28    11    12   ar
    29    12    13    2
    30    12    14   ar
    31    14    15    1
    32    19    20   ar
    33    20    21   ar
    34    21    16   ar
    35    10     1   ar
    36    34    29    1
    37     9     4   ar
    38    14     7   ar
@<TRIPOS>MOLECULE
*****
 34 38 0 0 0
SMALL
GASTEIGER

@<TRIPOS>ATOM
      1 C         143.5274  141.2796  163.3634 C.ar    1  UNL1        0.0016
      2 C         144.5748  142.2334  163.8562 C.ar    1  UNL1        0.0016
      3 C         144.5350  142.7244  165.2730 C.ar    1  UNL1        0.0191
      4 C         143.4477  142.2616  166.1969 C.ar    1  UNL1        0.0828
      5 N         143.4080  142.7527  167.6137 N.ar    1  UNL1       -0.2422
      6 C         142.3207  142.2898  168.5376 C.ar    1  UNL1        0.1175
      7 C         141.2732  141.3359  168.0447 C.ar    1  UNL1        0.0989
      8 C         141.3130  140.8449  166.6279 C.ar    1  UNL1        0.0826
      9 C         142.4003  141.3077  165.7040 C.ar    1  UNL1        0.0350
     10 C         142.4401  140.8167  164.2873 C.ar    1  UNL1        0.0030
     11 N         140.1531  139.9153  166.4268 N.ar    1  UNL1       -0.2792
     12 C         139.3965  139.8318  167.7193 C.ar    1  UNL1        0.3317
     13 O         138.1640  139.0138  167.9682 O.2     1  UNL1       -0.2463
     14 N         140.0888  140.7098  168.7192 N.ar    1  UNL1       -0.2765
     15 C         139.6701  140.9241  170.1436 C.3     1  UNL1        0.1352
     16 C         143.6467  139.8064  159.1129 C.ar    1  UNL1        0.2249
     17 C         143.3002  138.8612  160.2248 C.ar    1  UNL1        0.0577
     18 C         143.2604  139.3522  161.6417 C.ar    1  UNL1        0.0063
     19 C         143.5672  140.7885  161.9465 C.ar    1  UNL1        0.0194
     20 C         143.9137  141.7338  160.8346 C.ar    1  UNL1        0.1020
     21 N         143.9535  141.2428  159.4178 N.ar    1  UNL1       -0.2101
     22 O         143.6865  139.3154  157.6961 O.3     1  UNL1       -0.4602
     23 C         142.9264  138.0818  157.3083 C.3     1  UNL1        0.2085
     24 C         143.1977  137.4167  155.9914 C.3     1  UNL1        0.0647
     25 C         143.8446  136.0640  155.9536 C.3     1  UNL1        0.0760
     26 C         143.5502  134.0843  157.6103 C.3     1  UNL1        0.0897
     27 N         143.0832  134.8554  156.4114 N.3     1  UNL1       -0.2702
     28 C         141.8546  134.4179  155.6702 C.3     1  UNL1        0.0897
     29 C         139.8102  139.1955  165.1563 C.3     1  UNL1        0.1194
     30 C         140.6202  138.0093  164.7242 C.3     1  UNL1        0.0279
     31 C         140.2773  137.2895  163.4536 C.3     1  UNL1        0.0341
     32 C         139.1243  137.7560  162.6151 C.3     1  UNL1        0.1423
     33 O         138.3143  138.9422  163.0472 O.3     1  UNL1       -0.3518
     34 C         138.6572  139.6620  164.3177 C.3     1  UNL1        0.1647
@<TRIPOS>BOND
     1    26    27    1
     2    27    28    1
     3    27    25    1
     4    25    24    1
     5    24    23    1
     6    23    22    1
     7    22    16    1
     8    16    17   ar
     9    17    18   ar
    10    18    19   ar
    11    19     1    1
    12     1     2   ar
    13     2     3   ar
    14     3     4   ar
    15     4     5   ar
    16     5     6   ar
    17     6     7   ar
    18     7     8   ar
    19     8     9   ar
    20     9    10   ar
    21     8    11   ar
    22    29    11    1
    23    29    30    1
    24    30    31    1
    25    31    32    1
    26    32    33    1
    27    33    34    1
    28    11    12   ar
    29    12    13    2
    30    12    14   ar
    31    14    15    1
    32    19    20   ar
    33    20    21   ar
    34    21    16   ar
    35    10     1   ar
    36    34    29    1
    37     9     4   ar
    38    14     7   ar
@<TRIPOS>MOLECULE
*****
 34 38 0 0 0
SMALL
GASTEIGER

@<TRIPOS>ATOM
      1 C         140.7530  143.9464  164.0466 C.ar    1  UNL1        0.0016
      2 C         139.5537  144.8333  163.8886 C.ar    1  UNL1        0.0016
      3 C         139.2053  145.3905  162.5403 C.ar    1  UNL1        0.0191
      4 C         140.0563  145.0607  161.3498 C.ar    1  UNL1        0.0828
      5 N         139.7078  145.6180  160.0014 N.ar    1  UNL1       -0.2422
      6 C         140.5588  145.2882  158.8109 C.ar    1  UNL1        0.1175
      7 C         141.7582  144.4012  158.9689 C.ar    1  UNL1        0.0989
      8 C         142.1065  143.8441  160.3173 C.ar    1  UNL1        0.0826
      9 C         141.2556  144.1738  161.5078 C.ar    1  UNL1        0.0350
     10 C         141.6039  143.6166  162.8561 C.ar    1  UNL1        0.0030
     11 N         143.3399  143.0038  160.1670 N.ar    1  UNL1       -0.2792
     12 C         143.7539  143.0417  158.7258 C.ar    1  UNL1        0.3317
     13 O         144.9376  142.3392  158.1297 O.2     1  UNL1       -0.2463
     14 N         142.7762  143.9054  157.9853 N.ar    1  UNL1       -0.2765
     15 C         142.8107  144.2182  156.5187 C.3     1  UNL1        0.1352
     16 C         141.7981  142.2748  168.0918 C.ar    1  UNL1        0.2249
     17 C         142.8563  142.4008  167.0362 C.ar    1  UNL1        0.0577
     18 C         142.5079  142.9580  165.6877 C.ar    1  UNL1        0.0063
     19 C         141.1014  143.3892  165.3950 C.ar    1  UNL1        0.0194
     20 C         140.0432  143.2632  166.4507 C.ar    1  UNL1        0.1020
     21 N         140.3916  142.7060  167.7990 N.ar    1  UNL1       -0.2101
     22 O         142.1465  141.7176  169.4402 O.3     1  UNL1       -0.4602
     23 C         142.8509  140.3976  169.5470 C.3     1  UNL1        0.2085
     24 C         142.3614  139.2201  168.7570 C.3     1  UNL1        0.0647
     25 C         142.9818  138.8971  167.4301 C.3     1  UNL1        0.0760
     26 C         140.7225  139.3998  166.2499 C.3     1  UNL1        0.0897
     27 N         142.1537  138.9558  166.1809 N.3     1  UNL1       -0.2702
     28 C         142.7566  138.5705  164.8625 C.3     1  UNL1        0.0897
     29 C         144.0370  142.2568  161.2653 C.3     1  UNL1        0.1194
     30 C         144.7596  143.0095  162.3429 C.3     1  UNL1        0.0279
     31 C         145.4567  142.2626  163.4412 C.3     1  UNL1        0.0341
     32 C         145.4313  140.7630  163.4618 C.3     1  UNL1        0.1423
     33 O         144.7087  140.0103  162.3841 O.3     1  UNL1       -0.3518
     34 C         144.0116  140.7572  161.2859 C.3     1  UNL1        0.1647
@<TRIPOS>BOND
     1    26    27    1
     2    27    28    1
     3    27    25    1
     4    25    24    1
     5    24    23    1
     6    23    22    1
     7    22    16    1
     8    16    17   ar
     9    17    18   ar
    10    18    19   ar
    11    19     1    1
    12     1     2   ar
    13     2     3   ar
    14     3     4   ar
    15     4     5   ar
    16     5     6   ar
    17     6     7   ar
    18     7     8   ar
    19     8     9   ar
    20     9    10   ar
    21     8    11   ar
    22    29    11    1
    23    29    30    1
    24    30    31    1
    25    31    32    1
    26    32    33    1
    27    33    34    1
    28    11    12   ar
    29    12    13    2
    30    12    14   ar
    31    14    15    1
    32    19    20   ar
    33    20    21   ar
    34    21    16   ar
    35    10     1   ar
    36    34    29    1
    37     9     4   ar
    38    14     7   ar
@<TRIPOS>MOLECULE
*****
 34 38 0 0 0
SMALL
GASTEIGER

@<TRIPOS>ATOM
      1 C         140.5467  138.5714  163.5012 C.ar    1  UNL1        0.0016
      2 C         139.2284  137.9229  163.8037 C.ar    1  UNL1        0.0016
      3 C         138.5860  138.1197  165.1447 C.ar    1  UNL1        0.0191
      4 C         139.2618  138.9650  166.1833 C.ar    1  UNL1        0.0828
      5 N         138.6193  139.1618  167.5244 N.ar    1  UNL1       -0.2422
      6 C         139.2951  140.0071  168.5630 C.ar    1  UNL1        0.1175
      7 C         140.6134  140.6557  168.2605 C.ar    1  UNL1        0.0989
      8 C         141.2559  140.4589  166.9194 C.ar    1  UNL1        0.0826
      9 C         140.5800  139.6136  165.8808 C.ar    1  UNL1        0.0350
     10 C         141.2225  139.4168  164.5398 C.ar    1  UNL1        0.0030
     11 N         142.5493  141.2183  166.9092 N.ar    1  UNL1       -0.2792
     12 C         142.7063  141.8845  168.2440 C.ar    1  UNL1        0.3317
     13 O         143.8576  142.7470  168.6690 O.2     1  UNL1       -0.2463
     14 N         141.5098  141.5367  169.0791 N.ar    1  UNL1       -0.2765
     15 C         141.2545  141.9904  170.4859 C.3     1  UNL1        0.1352
     16 C         142.4742  137.9811  159.4779 C.ar    1  UNL1        0.2249
     17 C         143.3008  137.8897  160.7262 C.ar    1  UNL1        0.0577
     18 C         142.6583  138.0865  162.0673 C.ar    1  UNL1        0.0063
     19 C         141.1892  138.3746  162.1601 C.ar    1  UNL1        0.0194
     20 C         140.3625  138.4660  160.9118 C.ar    1  UNL1        0.1020
     21 N         141.0050  138.2693  159.5707 N.ar    1  UNL1       -0.2101
     22 O         143.1166  137.7843  158.1368 O.3     1  UNL1       -0.4602
     23 C         142.9154  138.8010  157.0525 C.3     1  UNL1        0.2085
     24 C         142.9360  140.2641  157.3829 C.3     1  UNL1        0.0647
     25 C         144.0238  140.8213  158.2525 C.3     1  UNL1        0.0760
     26 C         142.2909  141.6187  160.0163 C.3     1  UNL1        0.0897
     27 N         143.6747  141.6692  159.4395 N.3     1  UNL1       -0.2702
     28 C         144.7092  142.5677  160.0498 C.3     1  UNL1        0.0897
     29 C         143.5161  141.2977  165.7651 C.3     1  UNL1        0.1194
     30 C         144.1740  140.0514  165.2513 C.3     1  UNL1        0.0279
     31 C         145.1408  140.1306  164.1072 C.3     1  UNL1        0.0341
     32 C         145.4497  141.4563  163.4768 C.3     1  UNL1        0.1423
     33 O         144.7919  142.7025  163.9906 O.3     1  UNL1       -0.3518
     34 C         143.8251  142.6233  165.1347 C.3     1  UNL1        0.1647
@<TRIPOS>BOND
     1    26    27    1
     2    27    28    1
     3    27    25    1
     4    25    24    1
     5    24    23    1
     6    23    22    1
     7    22    16    1
     8    16    17   ar
     9    17    18   ar
    10    18    19   ar
    11    19     1    1
    12     1     2   ar
    13     2     3   ar
    14     3     4   ar
    15     4     5   ar
    16     5     6   ar
    17     6     7   ar
    18     7     8   ar
    19     8     9   ar
    20     9    10   ar
    21     8    11   ar
    22    29    11    1
    23    29    30    1
    24    30    31    1
    25    31    32    1
    26    32    33    1
    27    33    34    1
    28    11    12   ar
    29    12    13    2
    30    12    14   ar
    31    14    15    1
    32    19    20   ar
    33    20    21   ar
    34    21    16   ar
    35    10     1   ar
    36    34    29    1
    37     9     4   ar
    38    14     7   ar
@<TRIPOS>MOLECULE
*****
 34 38 0 0 0
SMALL
GASTEIGER

@<TRIPOS>ATOM
      1 C         143.5613  141.3620  163.4061 C.ar    1  UNL1        0.0016
      2 C         144.5852  142.3145  163.9485 C.ar    1  UNL1        0.0016
      3 C         144.5053  142.7686  165.3759 C.ar    1  UNL1        0.0191
      4 C         143.4015  142.2702  166.2608 C.ar    1  UNL1        0.0828
      5 N         143.3217  142.7243  167.6883 N.ar    1  UNL1       -0.2422
      6 C         142.2179  142.2259  168.5732 C.ar    1  UNL1        0.1175
      7 C         141.1939  141.2733  168.0308 C.ar    1  UNL1        0.0989
      8 C         141.2738  140.8192  166.6034 C.ar    1  UNL1        0.0826
      9 C         142.3776  141.3177  165.7185 C.ar    1  UNL1        0.0350
     10 C         142.4575  140.8636  164.2911 C.ar    1  UNL1        0.0030
     11 N         140.1301  139.8822  166.3504 N.ar    1  UNL1       -0.2792
     12 C         139.3435  139.7572  167.6215 C.ar    1  UNL1        0.3317
     13 O         138.1150  138.9195  167.8193 O.2     1  UNL1       -0.2463
     14 N         140.0009  140.6170  168.6600 N.ar    1  UNL1       -0.2765
     15 C         139.5454  140.7900  170.0786 C.3     1  UNL1        0.1352
     16 C         143.8008  139.9995  159.1240 C.ar    1  UNL1        0.2249
     17 C         143.4533  141.4242  159.4394 C.ar    1  UNL1        0.0577
     18 C         143.3735  141.8784  160.8668 C.ar    1  UNL1        0.0063
     19 C         143.6411  140.9079  161.9787 C.ar    1  UNL1        0.0194
     20 C         143.9886  139.4832  161.6633 C.ar    1  UNL1        0.1020
     21 N         144.0685  139.0290  160.2360 N.ar    1  UNL1       -0.2101
     22 O         143.8807  139.5454  157.6966 O.3     1  UNL1       -0.4602
     23 C         142.9694  138.4613  157.2025 C.3     1  UNL1        0.2085
     24 C         141.5259  138.4509  157.6105 C.3     1  UNL1        0.0647
     25 C         140.6456  139.6204  157.2829 C.3     1  UNL1        0.0760
     26 C         138.3068  140.5909  157.8645 C.3     1  UNL1        0.0897
     27 N         139.6665  140.1298  158.2987 N.3     1  UNL1       -0.2702
     28 C         140.0472  140.1781  159.7488 C.3     1  UNL1        0.0897
     29 C         139.8265  139.1915  165.0540 C.3     1  UNL1        0.1194
     30 C         140.6228  137.9895  164.6402 C.3     1  UNL1        0.0279
     31 C         140.3192  137.2987  163.3438 C.3     1  UNL1        0.0341
     32 C         139.2193  137.8099  162.4612 C.3     1  UNL1        0.1423
     33 O         138.4231  139.0118  162.8750 O.3     1  UNL1       -0.3518
     34 C         138.7266  139.7026  164.1714 C.3     1  UNL1        0.1647
@<TRIPOS>BOND
     1    26    27    1
     2    27    28    1
     3    27    25    1
     4    25    24    1
     5    24    23    1
     6    23    22    1
     7    22    16    1
     8    16    17   ar
     9    17    18   ar
    10    18    19   ar
    11    19     1    1
    12     1     2   ar
    13     2     3   ar
    14     3     4   ar
    15     4     5   ar
    16     5     6   ar
    17     6     7   ar
    18     7     8   ar
    19     8     9   ar
    20     9    10   ar
    21     8    11   ar
    22    29    11    1
    23    29    30    1
    24    30    31    1
    25    31    32    1
    26    32    33    1
    27    33    34    1
    28    11    12   ar
    29    12    13    2
    30    12    14   ar
    31    14    15    1
    32    19    20   ar
    33    20    21   ar
    34    21    16   ar
    35    10     1   ar
    36    34    29    1
    37     9     4   ar
    38    14     7   ar
