@<TRIPOS>MOLECULE
*****
 21 22 0 0 0
SMALL
GASTEIGER

@<TRIPOS>ATOM
      1 N         139.7578  140.1883  168.1594 N.am    1  UNL1       -0.2763
      2 C         138.7674  139.3742  167.3808 C.2     1  UNL1        0.2491
      3 O         137.6599  138.6571  168.0944 O.2     1  UNL1       -0.2699
      4 C         138.8845  139.2771  165.8885 C.ar    1  UNL1        0.0553
      5 C         139.7861  138.2488  165.2723 C.ar    1  UNL1        0.0160
      6 C         139.9032  138.1517  163.7800 C.ar    1  UNL1        0.0587
      7 CL        140.8048  137.1234  163.1637 Cl      1  UNL1       -0.0822
      8 C         139.1187  139.0829  162.9040 C.ar    1  UNL1        0.0228
      9 C         138.2171  140.1112  163.5202 C.ar    1  UNL1        0.0587
     10 CL        137.4326  141.0424  162.6442 Cl      1  UNL1       -0.0822
     11 C         138.1001  140.2083  165.0124 C.ar    1  UNL1        0.0160
     12 C         140.8653  140.9054  167.4458 C.3     1  UNL1        0.0927
     13 C         140.7621  142.2446  166.7780 C.3     1  UNL1        0.0383
     14 C         142.1035  142.5760  166.1942 C.3     1  UNL1        0.0704
     15 N         143.0357  141.4417  166.5011 N.3     1  UNL1       -0.2960
     16 C         142.2705  140.4092  167.2747 C.3     1  UNL1        0.0887
     17 H         143.8208  141.7797  167.0578 H       1  UNL1        0.1233
     18 C         139.6407  140.2854  169.6517 C.3     1  UNL1        0.0936
     19 C         141.6980  141.0388  171.0480 C.3     1  UNL1        0.0018
     20 C         140.3854  141.3549  170.3945 C.3     1  UNL1        0.0199
     21 C         139.8175  142.7403  170.4837 C.3     1  UNL1        0.0018
@<TRIPOS>BOND
     1    19    20    1
     2    20    21    1
     3    20    18    1
     4    18     1    1
     5     1     2   am
     6     2     3    2
     7     2     4    1
     8     4     5   ar
     9     5     6   ar
    10     6     7    1
    11     6     8   ar
    12     8     9   ar
    13     9    10    1
    14     9    11   ar
    15    12     1    1
    16    12    13    1
    17    13    14    1
    18    14    15    1
    19    15    16    1
    20    11     4   ar
    21    16    12    1
    22    15    17    1
@<TRIPOS>MOLECULE
*****
 21 22 0 0 0
SMALL
GASTEIGER

@<TRIPOS>ATOM
      1 N         139.8279  140.1755  168.1421 N.am    1  UNL1       -0.2763
      2 C         138.8101  139.3858  167.3738 C.2     1  UNL1        0.2491
      3 O         137.7054  138.6777  168.1007 O.2     1  UNL1       -0.2699
      4 C         138.8969  139.3041  165.8784 C.ar    1  UNL1        0.0553
      5 C         138.1056  140.2532  165.0283 C.ar    1  UNL1        0.0160
      6 C         138.1924  140.1715  163.5330 C.ar    1  UNL1        0.0587
      7 CL        137.4011  141.1207  162.6828 Cl      1  UNL1       -0.0822
      8 C         139.0706  139.1406  162.8880 C.ar    1  UNL1        0.0228
      9 C         139.8619  138.1914  163.7382 C.ar    1  UNL1        0.0587
     10 CL        140.7401  137.1605  163.0932 Cl      1  UNL1       -0.0822
     11 C         139.7751  138.2732  165.2334 C.ar    1  UNL1        0.0160
     12 C         140.9326  140.8835  167.4152 C.3     1  UNL1        0.0927
     13 C         140.8362  142.2296  166.7605 C.3     1  UNL1        0.0383
     14 C         142.1716  142.5478  166.1560 C.3     1  UNL1        0.0704
     15 N         143.0934  141.3984  166.4371 N.3     1  UNL1       -0.2960
     16 C         142.3276  140.3698  167.2153 C.3     1  UNL1        0.0887
     17 H         143.8926  141.7209  166.9827 H       1  UNL1        0.1233
     18 C         139.7411  140.2572  169.6374 C.3     1  UNL1        0.0936
     19 C         139.8079  142.7290  170.4343 C.3     1  UNL1        0.0018
     20 C         140.4345  141.3678  170.3693 C.3     1  UNL1        0.0199
     21 C         141.7544  141.1170  171.0363 C.3     1  UNL1        0.0018
@<TRIPOS>BOND
     1    19    20    1
     2    20    21    1
     3    20    18    1
     4    18     1    1
     5     1     2   am
     6     2     3    2
     7     2     4    1
     8     4     5   ar
     9     5     6   ar
    10     6     7    1
    11     6     8   ar
    12     8     9   ar
    13     9    10    1
    14     9    11   ar
    15    12     1    1
    16    12    13    1
    17    13    14    1
    18    14    15    1
    19    15    16    1
    20    11     4   ar
    21    16    12    1
    22    15    17    1
@<TRIPOS>MOLECULE
*****
 21 22 0 0 0
SMALL
GASTEIGER

@<TRIPOS>ATOM
      1 N         141.8116  139.9411  167.8131 N.am    1  UNL1       -0.2763
      2 C         140.3183  139.8693  167.6912 C.2     1  UNL1        0.2491
      3 O         139.4711  139.7316  168.9214 O.2     1  UNL1       -0.2699
      4 C         139.6721  139.9353  166.3391 C.ar    1  UNL1        0.0553
      5 C         139.1487  141.2420  165.8209 C.ar    1  UNL1        0.0160
      6 C         138.5026  141.3079  164.4688 C.ar    1  UNL1        0.0587
      7 CL        137.9791  142.6146  163.9506 Cl      1  UNL1       -0.0822
      8 C         138.3798  140.0671  163.6349 C.ar    1  UNL1        0.0228
      9 C         138.9032  138.7604  164.1531 C.ar    1  UNL1        0.0587
     10 CL        138.7805  137.5196  163.3192 Cl      1  UNL1       -0.0822
     11 C         139.5494  138.6945  165.5052 C.ar    1  UNL1        0.0160
     12 C         142.6588  140.0788  166.5829 C.3     1  UNL1        0.0927
     13 C         143.2675  138.9528  165.8010 C.3     1  UNL1        0.0383
     14 C         144.0309  139.5448  164.6534 C.3     1  UNL1        0.0704
     15 N         143.8940  141.0368  164.7262 N.3     1  UNL1       -0.2960
     16 C         143.0459  141.3668  165.9186 C.3     1  UNL1        0.0887
     17 H         143.4484  141.3852  163.8774 H       1  UNL1        0.1233
     18 C         142.4578  139.8752  169.1652 C.3     1  UNL1        0.0936
     19 C         141.7187  141.3333  171.1844 C.3     1  UNL1        0.0018
     20 C         142.6004  141.1200  169.9898 C.3     1  UNL1        0.0199
     21 C         143.6247  142.1515  169.6198 C.3     1  UNL1        0.0018
@<TRIPOS>BOND
     1    19    20    1
     2    20    21    1
     3    20    18    1
     4    18     1    1
     5     1     2   am
     6     2     3    2
     7     2     4    1
     8     4     5   ar
     9     5     6   ar
    10     6     7    1
    11     6     8   ar
    12     8     9   ar
    13     9    10    1
    14     9    11   ar
    15    12     1    1
    16    12    13    1
    17    13    14    1
    18    14    15    1
    19    15    16    1
    20    11     4   ar
    21    16    12    1
    22    15    17    1
@<TRIPOS>MOLECULE
*****
 21 22 0 0 0
SMALL
GASTEIGER

@<TRIPOS>ATOM
      1 N         141.8150  139.9511  167.8118 N.am    1  UNL1       -0.2763
      2 C         140.3218  139.8729  167.6928 C.2     1  UNL1        0.2491
      3 O         139.4775  139.7329  168.9246 O.2     1  UNL1       -0.2699
      4 C         139.6729  139.9348  166.3418 C.ar    1  UNL1        0.0553
      5 C         139.5536  138.6927  165.5094 C.ar    1  UNL1        0.0160
      6 C         138.9046  138.7546  164.1585 C.ar    1  UNL1        0.0587
      7 CL        138.7853  137.5124  163.3261 Cl      1  UNL1       -0.0822
      8 C         138.3750  140.0587  163.6400 C.ar    1  UNL1        0.0228
      9 C         138.4943  141.3008  164.4723 C.ar    1  UNL1        0.0587
     10 CL        137.9646  142.6049  163.9537 Cl      1  UNL1       -0.0822
     11 C         139.1432  141.2389  165.8232 C.ar    1  UNL1        0.0160
     12 C         142.6593  140.0912  166.5799 C.3     1  UNL1        0.0927
     13 C         143.2753  138.9672  165.8007 C.3     1  UNL1        0.0383
     14 C         144.0326  139.5612  164.6501 C.3     1  UNL1        0.0704
     15 N         143.8846  141.0523  164.7183 N.3     1  UNL1       -0.2960
     16 C         143.0359  141.3798  165.9109 C.3     1  UNL1        0.0887
     17 H         143.4352  141.3947  163.8691 H       1  UNL1        0.1233
     18 C         142.4640  139.8892  169.1628 C.3     1  UNL1        0.0936
     19 C         143.6528  142.1578  169.5987 C.3     1  UNL1        0.0018
     20 C         142.6197  141.1387  169.9780 C.3     1  UNL1        0.0199
     21 C         141.7421  141.3690  171.1725 C.3     1  UNL1        0.0018
@<TRIPOS>BOND
     1    19    20    1
     2    20    21    1
     3    20    18    1
     4    18     1    1
     5     1     2   am
     6     2     3    2
     7     2     4    1
     8     4     5   ar
     9     5     6   ar
    10     6     7    1
    11     6     8   ar
    12     8     9   ar
    13     9    10    1
    14     9    11   ar
    15    12     1    1
    16    12    13    1
    17    13    14    1
    18    14    15    1
    19    15    16    1
    20    11     4   ar
    21    16    12    1
    22    15    17    1
@<TRIPOS>MOLECULE
*****
 21 22 0 0 0
SMALL
GASTEIGER

@<TRIPOS>ATOM
      1 N         142.5020  141.5690  165.7984 N.am    1  UNL1       -0.2763
      2 C         141.1643  141.6838  165.1297 C.2     1  UNL1        0.2491
      3 O         140.7110  143.0041  164.5809 O.2     1  UNL1       -0.2699
      4 C         140.2798  140.4782  165.0096 C.ar    1  UNL1        0.0553
      5 C         140.3153  139.6430  163.7642 C.ar    1  UNL1        0.0160
      6 C         139.4309  138.4375  163.6443 C.ar    1  UNL1        0.0587
      7 CL        139.4663  137.6022  162.3988 Cl      1  UNL1       -0.0822
      8 C         138.5110  138.0672  164.7697 C.ar    1  UNL1        0.0228
      9 C         138.4755  138.9024  166.0151 C.ar    1  UNL1        0.0587
     10 CL        137.5556  138.5321  167.1406 Cl      1  UNL1       -0.0822
     11 C         139.3599  140.1079  166.1351 C.ar    1  UNL1        0.0160
     12 C         142.9553  140.2487  166.3473 C.3     1  UNL1        0.0927
     13 C         143.6503  139.1654  165.5769 C.3     1  UNL1        0.0383
     14 C         143.9177  138.0270  166.5163 C.3     1  UNL1        0.0704
     15 N         143.3881  138.4067  167.8673 N.3     1  UNL1       -0.2960
     16 C         142.7933  139.7798  167.7628 C.3     1  UNL1        0.0887
     17 H         144.1473  138.4092  168.5485 H       1  UNL1        0.1233
     18 C         143.3865  142.7746  165.9185 C.3     1  UNL1        0.0936
     19 C         143.8824  144.6171  164.1552 C.3     1  UNL1        0.0018
     20 C         144.1599  143.2588  164.7280 C.3     1  UNL1        0.0199
     21 C         145.2109  142.3849  164.1103 C.3     1  UNL1        0.0018
@<TRIPOS>BOND
     1    19    20    1
     2    20    21    1
     3    20    18    1
     4    18     1    1
     5     1     2   am
     6     2     3    2
     7     2     4    1
     8     4     5   ar
     9     5     6   ar
    10     6     7    1
    11     6     8   ar
    12     8     9   ar
    13     9    10    1
    14     9    11   ar
    15    12     1    1
    16    12    13    1
    17    13    14    1
    18    14    15    1
    19    15    16    1
    20    11     4   ar
    21    16    12    1
    22    15    17    1
@<TRIPOS>MOLECULE
*****
 21 22 0 0 0
SMALL
GASTEIGER

@<TRIPOS>ATOM
      1 N         141.0986  140.9979  167.7225 N.am    1  UNL1       -0.2763
      2 C         142.1546  139.9681  167.4499 C.2     1  UNL1        0.2491
      3 O         142.9124  139.3515  168.5881 O.2     1  UNL1       -0.2699
      4 C         142.4529  139.5549  166.0391 C.ar    1  UNL1        0.0553
      5 C         141.6485  138.4679  165.3900 C.ar    1  UNL1        0.0160
      6 C         141.9468  138.0548  163.9792 C.ar    1  UNL1        0.0587
      7 CL        141.1424  136.9677  163.3300 Cl      1  UNL1       -0.0822
      8 C         143.0494  138.7286  163.2176 C.ar    1  UNL1        0.0228
      9 C         143.8538  139.8156  163.8667 C.ar    1  UNL1        0.0587
     10 CL        144.9564  140.4895  163.1051 Cl      1  UNL1       -0.0822
     11 C         143.5555  140.2288  165.2775 C.ar    1  UNL1        0.0160
     12 C         140.3408  141.6145  166.5843 C.3     1  UNL1        0.0927
     13 C         140.6301  142.9421  165.9490 C.3     1  UNL1        0.0383
     14 C         139.6287  143.1599  164.8536 C.3     1  UNL1        0.0704
     15 N         138.7205  141.9669  164.8119 N.3     1  UNL1       -0.2960
     16 C         139.1606  141.0117  165.8816 C.3     1  UNL1        0.0887
     17 H         138.7824  141.5164  163.8989 H       1  UNL1        0.1233
     18 C         140.8003  141.4111  169.1333 C.3     1  UNL1        0.0936
     19 C         140.4497  143.8831  169.8514 C.3     1  UNL1        0.0018
     20 C         141.3518  142.6985  169.6703 C.3     1  UNL1        0.0199
     21 C         142.8053  142.8013  170.0262 C.3     1  UNL1        0.0018
@<TRIPOS>BOND
     1    19    20    1
     2    20    21    1
     3    20    18    1
     4    18     1    1
     5     1     2   am
     6     2     3    2
     7     2     4    1
     8     4     5   ar
     9     5     6   ar
    10     6     7    1
    11     6     8   ar
    12     8     9   ar
    13     9    10    1
    14     9    11   ar
    15    12     1    1
    16    12    13    1
    17    13    14    1
    18    14    15    1
    19    15    16    1
    20    11     4   ar
    21    16    12    1
    22    15    17    1
@<TRIPOS>MOLECULE
*****
 21 22 0 0 0
SMALL
GASTEIGER

@<TRIPOS>ATOM
      1 N         141.1332  141.0060  167.7439 N.am    1  UNL1       -0.2763
      2 C         142.1821  139.9701  167.4672 C.2     1  UNL1        0.2491
      3 O         142.9371  139.3453  168.6028 O.2     1  UNL1       -0.2699
      4 C         142.4761  139.5590  166.0548 C.ar    1  UNL1        0.0553
      5 C         143.5747  140.2357  165.2900 C.ar    1  UNL1        0.0160
      6 C         143.8686  139.8246  163.8777 C.ar    1  UNL1        0.0587
      7 CL        144.9673  140.5013  163.1127 Cl      1  UNL1       -0.0822
      8 C         143.0639  138.7367  163.2303 C.ar    1  UNL1        0.0228
      9 C         141.9653  138.0600  163.9952 C.ar    1  UNL1        0.0587
     10 CL        141.1606  136.9722  163.3478 Cl      1  UNL1       -0.0822
     11 C         141.6714  138.4712  165.4074 C.ar    1  UNL1        0.0160
     12 C         140.3782  141.6309  166.6083 C.3     1  UNL1        0.0927
     13 C         140.6869  142.9499  165.9642 C.3     1  UNL1        0.0383
     14 C         139.6814  143.1807  164.8752 C.3     1  UNL1        0.0704
     15 N         138.7513  142.0042  164.8463 N.3     1  UNL1       -0.2960
     16 C         139.1820  141.0464  165.9174 C.3     1  UNL1        0.0887
     17 H         138.7981  141.5483  163.9350 H       1  UNL1        0.1233
     18 C         140.8392  141.4171  169.1562 C.3     1  UNL1        0.0936
     19 C         140.4626  143.8910  169.8546 C.3     1  UNL1        0.0018
     20 C         141.3761  142.7131  169.6873 C.3     1  UNL1        0.0199
     21 C         142.8265  142.8312  170.0511 C.3     1  UNL1        0.0018
@<TRIPOS>BOND
     1    19    20    1
     2    20    21    1
     3    20    18    1
     4    18     1    1
     5     1     2   am
     6     2     3    2
     7     2     4    1
     8     4     5   ar
     9     5     6   ar
    10     6     7    1
    11     6     8   ar
    12     8     9   ar
    13     9    10    1
    14     9    11   ar
    15    12     1    1
    16    12    13    1
    17    13    14    1
    18    14    15    1
    19    15    16    1
    20    11     4   ar
    21    16    12    1
    22    15    17    1
@<TRIPOS>MOLECULE
*****
 21 22 0 0 0
SMALL
GASTEIGER

@<TRIPOS>ATOM
      1 N         139.7271  143.0004  164.8947 N.am    1  UNL1       -0.2763
      2 C         138.8416  142.0168  164.1888 C.2     1  UNL1        0.2491
      3 O         137.8258  142.4998  163.1963 O.2     1  UNL1       -0.2699
      4 C         138.9718  140.5502  164.4753 C.ar    1  UNL1        0.0553
      5 C         139.9039  139.7061  163.6577 C.ar    1  UNL1        0.0160
      6 C         140.0341  138.2395  163.9442 C.ar    1  UNL1        0.0587
      7 CL        140.9662  137.3954  163.1265 Cl      1  UNL1       -0.0822
      8 C         139.2322  137.6170  165.0485 C.ar    1  UNL1        0.0228
      9 C         138.3000  138.4611  165.8662 C.ar    1  UNL1        0.0587
     10 CL        137.4981  137.8386  166.9705 Cl      1  UNL1       -0.0822
     11 C         138.1699  139.9277  165.5796 C.ar    1  UNL1        0.0160
     12 C         140.7429  142.5175  165.8871 C.3     1  UNL1        0.0927
     13 C         142.1637  142.1443  165.5839 C.3     1  UNL1        0.0383
     14 C         142.8151  141.7191  166.8664 C.3     1  UNL1        0.0704
     15 N         141.7969  141.8295  167.9623 N.3     1  UNL1       -0.2960
     16 C         140.5162  142.3230  167.3571 C.3     1  UNL1        0.0887
     17 H         142.1210  142.4877  168.6709 H       1  UNL1        0.1233
     18 C         139.5968  144.4671  164.6081 C.3     1  UNL1        0.0936
     19 C         139.7247  145.4544  162.2084 C.3     1  UNL1        0.0018
     20 C         140.3941  145.0884  163.4998 C.3     1  UNL1        0.0199
     21 C         141.8608  145.3438  163.6831 C.3     1  UNL1        0.0018
@<TRIPOS>BOND
     1    19    20    1
     2    20    21    1
     3    20    18    1
     4    18     1    1
     5     1     2   am
     6     2     3    2
     7     2     4    1
     8     4     5   ar
     9     5     6   ar
    10     6     7    1
    11     6     8   ar
    12     8     9   ar
    13     9    10    1
    14     9    11   ar
    15    12     1    1
    16    12    13    1
    17    13    14    1
    18    14    15    1
    19    15    16    1
    20    11     4   ar
    21    16    12    1
    22    15    17    1
@<TRIPOS>MOLECULE
*****
 21 22 0 0 0
SMALL
GASTEIGER

@<TRIPOS>ATOM
      1 N         142.3030  141.6346  167.5283 N.am    1  UNL1       -0.2763
      2 C         142.4864  140.1510  167.4055 C.2     1  UNL1        0.2491
      3 O         143.0406  139.3658  168.5572 O.2     1  UNL1       -0.2699
      4 C         142.1155  139.4524  166.1309 C.ar    1  UNL1        0.0553
      5 C         140.7290  138.9098  165.9490 C.ar    1  UNL1        0.0160
      6 C         140.3582  138.2113  164.6745 C.ar    1  UNL1        0.0587
      7 CL        138.9716  137.6687  164.4925 Cl      1  UNL1       -0.0822
      8 C         141.3740  138.0552  163.5818 C.ar    1  UNL1        0.0228
      9 C         142.7605  138.5978  163.7637 C.ar    1  UNL1        0.0587
     10 CL        143.7763  138.4417  162.6710 Cl      1  UNL1       -0.0822
     11 C         143.1313  139.2963  165.0382 C.ar    1  UNL1        0.0160
     12 C         141.7489  142.4197  166.3766 C.3     1  UNL1        0.0927
     13 C         140.3088  142.7853  166.1704 C.3     1  UNL1        0.0383
     14 C         140.2073  143.5686  164.8952 C.3     1  UNL1        0.0704
     15 N         141.5848  143.6872  164.3132 N.3     1  UNL1       -0.2960
     16 C         142.5374  142.9772  165.2288 C.3     1  UNL1        0.0887
     17 H         141.8452  144.6705  164.2378 H       1  UNL1        0.1233
     18 C         142.6739  142.3332  168.8029 C.3     1  UNL1        0.0936
     19 C         140.6736  143.6725  169.7802 C.3     1  UNL1        0.0018
     20 C         141.6446  142.5331  169.8755 C.3     1  UNL1        0.0199
     21 C         141.5862  141.5936  171.0434 C.3     1  UNL1        0.0018
@<TRIPOS>BOND
     1    19    20    1
     2    20    21    1
     3    20    18    1
     4    18     1    1
     5     1     2   am
     6     2     3    2
     7     2     4    1
     8     4     5   ar
     9     5     6   ar
    10     6     7    1
    11     6     8   ar
    12     8     9   ar
    13     9    10    1
    14     9    11   ar
    15    12     1    1
    16    12    13    1
    17    13    14    1
    18    14    15    1
    19    15    16    1
    20    11     4   ar
    21    16    12    1
    22    15    17    1
