@<TRIPOS>MOLECULE
*****
 34 39 0 0 0
SMALL
GASTEIGER

@<TRIPOS>ATOM
      1 C         140.0601  141.7115  165.5645 C.ar    1  UNL1        0.0908
      2 C         140.6084  141.0840  166.8117 C.ar    1  UNL1        0.1496
      3 O         140.3448  139.6090  166.7430 O.2     1  UNL1       -0.4534
      4 C         139.6335  139.3248  165.4533 C.ar    1  UNL1        0.1454
      5 C         139.1233  138.0507  164.8481 C.ar    1  UNL1        0.0406
      6 C         138.4372  138.0760  163.5145 C.ar    1  UNL1        0.0395
      7 C         138.2613  139.3754  162.7861 C.ar    1  UNL1        0.1311
      8 O         137.5751  139.4007  161.4524 O.3     1  UNL1       -0.5058
      9 C         138.7714  140.6495  163.3913 C.ar    1  UNL1        0.0308
     10 C         139.4576  140.6242  164.7249 C.ar    1  UNL1        0.0421
     11 H         137.2564  138.6048  161.0743 H       1  UNL1        0.2922
     12 C         141.2991  141.8050  167.9311 C.ar    1  UNL1        0.0349
     13 C         140.5226  142.7330  168.8176 C.ar    1  UNL1        0.0061
     14 C         141.2133  143.4540  169.9370 C.ar    1  UNL1        0.0367
     15 C         142.6805  143.2470  170.1700 C.ar    1  UNL1        0.1337
     16 O         143.3712  143.9681  171.2894 O.3     1  UNL1       -0.5055
     17 C         143.4571  142.3191  169.2835 C.ar    1  UNL1        0.0367
     18 C         142.7664  141.5981  168.1641 C.ar    1  UNL1        0.0061
     19 H         142.8861  144.5477  171.8431 H       1  UNL1        0.2922
     20 O         138.9749  144.0715  165.6145 O.2     1  UNL1       -0.2698
     21 C         140.1062  143.1701  165.2176 C.2     1  UNL1        0.2521
     22 N         141.2837  143.7273  164.4739 N.am    1  UNL1       -0.2759
     23 C         141.6731  145.0848  163.9684 C.3     1  UNL1        0.0955
     24 C         142.9488  144.5153  163.4221 C.3     1  UNL1        0.0430
     25 C         142.5593  143.1578  163.9275 C.3     1  UNL1        0.0955
     26 C         138.5955  141.9489  162.6629 C.3     1  UNL1        0.1023
     27 N         139.6496  142.4210  161.7059 N.3     1  UNL1       -0.2687
     28 C         140.7289  141.5763  161.0962 C.3     1  UNL1        0.0726
     29 C         141.5559  142.4538  160.2039 C.3     1  UNL1        0.0235
     30 C         140.9877  143.8409  160.2621 C.3     1  UNL1        0.0707
     31 C         140.5913  145.2846  160.1699 C.3     1  UNL1        0.1458
     32 O         141.7213  145.5339  159.2155 O.3     1  UNL1       -0.3535
     33 C         142.1176  144.0901  159.3078 C.3     1  UNL1        0.1458
     34 C         139.8095  143.8205  161.1904 C.3     1  UNL1        0.0772
@<TRIPOS>BOND
     1    20    21    2
     2    21     1    1
     3     1     2   ar
     4     2    12    1
     5    12    13   ar
     6    13    14   ar
     7    14    15   ar
     8    15    16    1
     9    15    17   ar
    10    17    18   ar
    11     2     3   ar
    12     3     4   ar
    13     4     5   ar
    14     5     6   ar
    15     6     7   ar
    16     7     8    1
    17     7     9   ar
    18     9    26    1
    19    26    27    1
    20    27    28    1
    21    28    29    1
    22    29    30    1
    23    30    31    1
    24    31    32    1
    25    32    33    1
    26    30    34    1
    27     9    10   ar
    28    21    22   am
    29    22    23    1
    30    23    24    1
    31    24    25    1
    32    10     1   ar
    33    25    22    1
    34    18    12   ar
    35    10     4   ar
    36    34    27    1
    37    33    30    1
    38    16    19    1
    39     8    11    1
@<TRIPOS>MOLECULE
*****
 34 39 0 0 0
SMALL
GASTEIGER

@<TRIPOS>ATOM
      1 C         141.5839  142.8591  165.4535 C.ar    1  UNL1        0.0908
      2 C         140.4862  142.9624  166.4705 C.ar    1  UNL1        0.1496
      3 O         139.4096  143.8393  165.9031 O.2     1  UNL1       -0.4534
      4 C         139.8420  144.2781  164.5354 C.ar    1  UNL1        0.1454
      5 C         139.1857  145.1510  163.5072 C.ar    1  UNL1        0.0406
      6 C         139.8732  145.4180  162.2011 C.ar    1  UNL1        0.0395
      7 C         141.2170  144.8122  161.9232 C.ar    1  UNL1        0.1311
      8 O         141.9045  145.0793  160.6170 O.3     1  UNL1       -0.5058
      9 C         141.8733  143.9393  162.9514 C.ar    1  UNL1        0.0308
     10 C         141.1858  143.6723  164.2575 C.ar    1  UNL1        0.0421
     11 H         141.4945  145.6246  159.9747 H       1  UNL1        0.2922
     12 C         140.4682  142.3042  167.8183 C.ar    1  UNL1        0.0349
     13 C         140.0570  140.8673  167.9458 C.ar    1  UNL1        0.0061
     14 C         140.0389  140.2092  169.2936 C.ar    1  UNL1        0.0367
     15 C         140.4321  140.9879  170.5138 C.ar    1  UNL1        0.1337
     16 O         140.4141  140.3297  171.8616 O.3     1  UNL1       -0.5055
     17 C         140.8434  142.4247  170.3863 C.ar    1  UNL1        0.0367
     18 C         140.8614  143.0829  169.0385 C.ar    1  UNL1        0.0061
     19 H         140.1573  139.4321  171.9413 H       1  UNL1        0.2922
     20 O         144.1259  142.7826  165.9847 O.2     1  UNL1       -0.2698
     21 C         142.8563  142.0796  165.6057 C.2     1  UNL1        0.2521
     22 N         142.8592  140.5967  165.3787 N.am    1  UNL1       -0.2759
     23 C         143.8990  139.5172  165.4352 C.3     1  UNL1        0.0955
     24 C         142.8632  138.4999  165.0579 C.3     1  UNL1        0.0430
     25 C         141.8234  139.5795  165.0014 C.3     1  UNL1        0.0955
     26 C         143.2171  143.3335  162.6735 C.3     1  UNL1        0.1023
     27 N         143.3176  141.9065  162.2224 N.3     1  UNL1       -0.2687
     28 C         144.5726  141.0869  162.1632 C.3     1  UNL1        0.0726
     29 C         144.2115  139.7224  161.6555 C.3     1  UNL1        0.0235
     30 C         142.7334  139.6986  161.4009 C.3     1  UNL1        0.0707
     31 C         141.2893  139.4520  161.0790 C.3     1  UNL1        0.1458
     32 O         141.6199  138.0462  160.6732 O.3     1  UNL1       -0.3535
     33 C         143.0640  138.2930  160.9952 C.3     1  UNL1        0.1458
     34 C         142.1810  141.0485  161.7513 C.3     1  UNL1        0.0772
@<TRIPOS>BOND
     1    20    21    2
     2    21     1    1
     3     1     2   ar
     4     2    12    1
     5    12    13   ar
     6    13    14   ar
     7    14    15   ar
     8    15    16    1
     9    15    17   ar
    10    17    18   ar
    11     2     3   ar
    12     3     4   ar
    13     4     5   ar
    14     5     6   ar
    15     6     7   ar
    16     7     8    1
    17     7     9   ar
    18     9    26    1
    19    26    27    1
    20    27    28    1
    21    28    29    1
    22    29    30    1
    23    30    31    1
    24    31    32    1
    25    32    33    1
    26    30    34    1
    27     9    10   ar
    28    21    22   am
    29    22    23    1
    30    23    24    1
    31    24    25    1
    32    10     1   ar
    33    25    22    1
    34    18    12   ar
    35    10     4   ar
    36    34    27    1
    37    33    30    1
    38    16    19    1
    39     8    11    1
@<TRIPOS>MOLECULE
*****
 34 39 0 0 0
SMALL
GASTEIGER

@<TRIPOS>ATOM
      1 C         140.3884  141.3180  165.5924 C.ar    1  UNL1        0.0908
      2 C         140.6384  141.9770  166.9165 C.ar    1  UNL1        0.1496
      3 O         139.9512  143.3103  166.9077 O.2     1  UNL1       -0.4534
      4 C         139.2765  143.4753  165.5781 C.ar    1  UNL1        0.1454
      5 C         138.4511  144.5877  165.0027 C.ar    1  UNL1        0.0406
      6 C         137.8959  144.4688  163.6144 C.ar    1  UNL1        0.0395
      7 C         138.1661  143.2374  162.8015 C.ar    1  UNL1        0.1311
      8 O         137.6108  143.1185  161.4130 O.3     1  UNL1       -0.5058
      9 C         138.9916  142.1251  163.3769 C.ar    1  UNL1        0.0308
     10 C         139.5468  142.2440  164.7652 C.ar    1  UNL1        0.0421
     11 H         137.0952  143.8134  161.0536 H       1  UNL1        0.2922
     12 C         141.4355  141.4034  168.0503 C.ar    1  UNL1        0.0349
     13 C         141.0354  140.0931  168.6610 C.ar    1  UNL1        0.0061
     14 C         141.8326  139.5195  169.7948 C.ar    1  UNL1        0.0367
     15 C         143.0299  140.2562  170.3179 C.ar    1  UNL1        0.1337
     16 O         143.8270  139.6826  171.4517 O.3     1  UNL1       -0.5055
     17 C         143.4300  141.5665  169.7072 C.ar    1  UNL1        0.0367
     18 C         142.6328  142.1401  168.5734 C.ar    1  UNL1        0.0061
     19 H         143.5771  138.8641  171.8332 H       1  UNL1        0.2922
     20 O         140.0045  138.7663  165.2900 O.2     1  UNL1       -0.2698
     21 C         140.8918  139.9697  165.1696 C.2     1  UNL1        0.2521
     22 N         142.2825  139.8248  164.6264 N.am    1  UNL1       -0.2759
     23 C         143.1091  138.6806  164.1188 C.3     1  UNL1        0.0955
     24 C         144.2491  139.6199  163.8582 C.3     1  UNL1        0.0430
     25 C         143.4226  140.7641  164.3657 C.3     1  UNL1        0.0955
     26 C         139.2618  140.8937  162.5640 C.3     1  UNL1        0.1023
     27 N         140.5339  140.7784  161.7777 N.3     1  UNL1       -0.2687
     28 C         141.4756  141.9004  161.4546 C.3     1  UNL1        0.0726
     29 C         142.6115  141.3362  160.6537 C.3     1  UNL1        0.0235
     30 C         142.3719  139.8655  160.4818 C.3     1  UNL1        0.0707
     31 C         142.3342  138.3948  160.1890 C.3     1  UNL1        0.1458
     32 O         143.6283  138.5109  159.4393 O.3     1  UNL1       -0.3535
     33 C         143.6659  139.9816  159.7321 C.3     1  UNL1        0.1458
     34 C         141.0879  139.5207  161.1765 C.3     1  UNL1        0.0772
@<TRIPOS>BOND
     1    20    21    2
     2    21     1    1
     3     1     2   ar
     4     2    12    1
     5    12    13   ar
     6    13    14   ar
     7    14    15   ar
     8    15    16    1
     9    15    17   ar
    10    17    18   ar
    11     2     3   ar
    12     3     4   ar
    13     4     5   ar
    14     5     6   ar
    15     6     7   ar
    16     7     8    1
    17     7     9   ar
    18     9    26    1
    19    26    27    1
    20    27    28    1
    21    28    29    1
    22    29    30    1
    23    30    31    1
    24    31    32    1
    25    32    33    1
    26    30    34    1
    27     9    10   ar
    28    21    22   am
    29    22    23    1
    30    23    24    1
    31    24    25    1
    32    10     1   ar
    33    25    22    1
    34    18    12   ar
    35    10     4   ar
    36    34    27    1
    37    33    30    1
    38    16    19    1
    39     8    11    1
@<TRIPOS>MOLECULE
*****
 34 39 0 0 0
SMALL
GASTEIGER

@<TRIPOS>ATOM
      1 C         142.2363  143.0044  165.3817 C.ar    1  UNL1        0.0908
      2 C         141.4673  142.6070  166.6067 C.ar    1  UNL1        0.1496
      3 O         140.0730  143.1437  166.4731 O.2     1  UNL1       -0.4534
      4 C         139.9802  143.8728  165.1655 C.ar    1  UNL1        0.1454
      5 C         138.8511  144.6040  164.5019 C.ar    1  UNL1        0.0406
      6 C         139.0590  145.2490  163.1638 C.ar    1  UNL1        0.0395
      7 C         140.3960  145.1630  162.4892 C.ar    1  UNL1        0.1311
      8 O         140.6038  145.8081  161.1510 O.3     1  UNL1       -0.5058
      9 C         141.5251  144.4318  163.1528 C.ar    1  UNL1        0.0308
     10 C         141.3172  143.7867  164.4909 C.ar    1  UNL1        0.0421
     11 H         139.8985  146.2649  160.7365 H       1  UNL1        0.2922
     12 C         141.9992  141.8124  167.7624 C.ar    1  UNL1        0.0349
     13 C         141.8800  140.3172  167.7627 C.ar    1  UNL1        0.0061
     14 C         142.4119  139.5226  168.9184 C.ar    1  UNL1        0.0367
     15 C         143.0630  140.2232  170.0738 C.ar    1  UNL1        0.1337
     16 O         143.5949  139.4286  171.2296 O.3     1  UNL1       -0.5055
     17 C         143.1822  141.7184  170.0736 C.ar    1  UNL1        0.0367
     18 C         142.6503  142.5130  168.9179 C.ar    1  UNL1        0.0061
     19 H         143.5205  138.4945  171.2297 H       1  UNL1        0.2922
     20 O         144.7465  143.6730  165.4191 O.2     1  UNL1       -0.2698
     21 C         143.6722  142.6770  165.0973 C.2     1  UNL1        0.2521
     22 N         144.0339  141.3534  164.4910 N.am    1  UNL1       -0.2759
     23 C         145.3144  140.6906  164.0776 C.3     1  UNL1        0.0955
     24 C         144.5452  139.4818  163.6336 C.3     1  UNL1        0.0430
     25 C         143.2647  140.1446  164.0470 C.3     1  UNL1        0.0955
     26 C         142.8621  144.3458  162.4783 C.3     1  UNL1        0.1023
     27 N         143.2031  143.1503  161.6389 N.3     1  UNL1       -0.2687
     28 C         144.5670  142.7924  161.1271 C.3     1  UNL1        0.0726
     29 C         144.4470  141.5237  160.3358 C.3     1  UNL1        0.0235
     30 C         143.0090  141.0975  160.3585 C.3     1  UNL1        0.0707
     31 C         141.6420  140.4897  160.2497 C.3     1  UNL1        0.1458
     32 O         142.2038  139.3756  159.4170 O.3     1  UNL1       -0.3535
     33 C         143.5707  139.9835  159.5259 C.3     1  UNL1        0.1458
     34 C         142.2402  142.1029  161.1639 C.3     1  UNL1        0.0772
@<TRIPOS>BOND
     1    20    21    2
     2    21     1    1
     3     1     2   ar
     4     2    12    1
     5    12    13   ar
     6    13    14   ar
     7    14    15   ar
     8    15    16    1
     9    15    17   ar
    10    17    18   ar
    11     2     3   ar
    12     3     4   ar
    13     4     5   ar
    14     5     6   ar
    15     6     7   ar
    16     7     8    1
    17     7     9   ar
    18     9    26    1
    19    26    27    1
    20    27    28    1
    21    28    29    1
    22    29    30    1
    23    30    31    1
    24    31    32    1
    25    32    33    1
    26    30    34    1
    27     9    10   ar
    28    21    22   am
    29    22    23    1
    30    23    24    1
    31    24    25    1
    32    10     1   ar
    33    25    22    1
    34    18    12   ar
    35    10     4   ar
    36    34    27    1
    37    33    30    1
    38    16    19    1
    39     8    11    1
@<TRIPOS>MOLECULE
*****
 34 39 0 0 0
SMALL
GASTEIGER

@<TRIPOS>ATOM
      1 C         141.4820  140.9651  165.4688 C.ar    1  UNL1        0.0908
      2 C         141.1309  140.7721  166.9142 C.ar    1  UNL1        0.1496
      3 O         140.1397  139.6499  167.0046 O.2     1  UNL1       -0.4534
      4 C         139.8783  139.1493  165.6150 C.ar    1  UNL1        0.1454
      5 C         138.9920  138.0583  165.0914 C.ar    1  UNL1        0.0406
      6 C         138.9353  137.7802  163.6185 C.ar    1  UNL1        0.0395
      7 C         139.7649  138.5930  162.6693 C.ar    1  UNL1        0.1311
      8 O         139.7082  138.3148  161.1963 O.3     1  UNL1       -0.5058
      9 C         140.6512  139.6840  163.1929 C.ar    1  UNL1        0.0308
     10 C         140.7079  139.9621  164.6658 C.ar    1  UNL1        0.0421
     11 H         139.1546  137.6333  160.8692 H       1  UNL1        0.2922
     12 C         141.6753  141.5626  168.0670 C.ar    1  UNL1        0.0349
     13 C         140.8201  142.5962  168.7381 C.ar    1  UNL1        0.0061
     14 C         141.3645  143.3866  169.8908 C.ar    1  UNL1        0.0367
     15 C         142.7641  143.1436  170.3724 C.ar    1  UNL1        0.1337
     16 O         143.3085  143.9341  171.5251 O.3     1  UNL1       -0.5055
     17 C         143.6193  142.1100  169.7013 C.ar    1  UNL1        0.0367
     18 C         143.0749  141.3196  168.5486 C.ar    1  UNL1        0.0061
     19 H         142.7743  144.5797  171.9443 H       1  UNL1        0.2922
     20 O         142.0329  143.4236  164.8347 O.2     1  UNL1       -0.2698
     21 C         142.4392  141.9824  164.9222 C.2     1  UNL1        0.2521
     22 N         143.8029  141.5585  164.4630 N.am    1  UNL1       -0.2759
     23 C         144.9919  142.2625  163.8795 C.3     1  UNL1        0.0955
     24 C         145.7313  140.9589  163.8136 C.3     1  UNL1        0.0430
     25 C         144.5422  140.2550  164.3971 C.3     1  UNL1        0.0955
     26 C         141.4808  140.4969  162.2437 C.3     1  UNL1        0.1023
     27 N         141.1332  141.9328  161.9844 N.3     1  UNL1       -0.2687
     28 C         142.0180  142.9489  161.3250 C.3     1  UNL1        0.0726
     29 C         141.2715  144.2489  161.2720 C.3     1  UNL1        0.0235
     30 C         139.9253  144.0362  161.8986 C.3     1  UNL1        0.0707
     31 C         138.5414  144.0508  162.4769 C.3     1  UNL1        0.1458
     32 O         138.4087  145.5023  162.1228 O.3     1  UNL1       -0.3535
     33 C         139.7926  145.4877  161.5445 C.3     1  UNL1        0.1458
     34 C         139.8398  142.6048  162.3388 C.3     1  UNL1        0.0772
@<TRIPOS>BOND
     1    20    21    2
     2    21     1    1
     3     1     2   ar
     4     2    12    1
     5    12    13   ar
     6    13    14   ar
     7    14    15   ar
     8    15    16    1
     9    15    17   ar
    10    17    18   ar
    11     2     3   ar
    12     3     4   ar
    13     4     5   ar
    14     5     6   ar
    15     6     7   ar
    16     7     8    1
    17     7     9   ar
    18     9    26    1
    19    26    27    1
    20    27    28    1
    21    28    29    1
    22    29    30    1
    23    30    31    1
    24    31    32    1
    25    32    33    1
    26    30    34    1
    27     9    10   ar
    28    21    22   am
    29    22    23    1
    30    23    24    1
    31    24    25    1
    32    10     1   ar
    33    25    22    1
    34    18    12   ar
    35    10     4   ar
    36    34    27    1
    37    33    30    1
    38    16    19    1
    39     8    11    1
@<TRIPOS>MOLECULE
*****
 34 39 0 0 0
SMALL
GASTEIGER

@<TRIPOS>ATOM
      1 C         141.4852  140.7780  165.5559 C.ar    1  UNL1        0.0908
      2 C         141.0812  140.7174  166.9992 C.ar    1  UNL1        0.1496
      3 O         140.0139  139.6726  167.1383 O.2     1  UNL1       -0.4534
      4 C         139.7583  139.0875  165.7809 C.ar    1  UNL1        0.1454
      5 C         138.8151  138.0209  165.3091 C.ar    1  UNL1        0.0406
      6 C         138.7812  137.6375  163.8594 C.ar    1  UNL1        0.0395
      7 C         139.6905  138.3207  162.8815 C.ar    1  UNL1        0.1311
      8 O         139.6566  137.9372  161.4316 O.3     1  UNL1       -0.5058
      9 C         140.6338  139.3873  163.3532 C.ar    1  UNL1        0.0308
     10 C         140.6677  139.7707  164.8030 C.ar    1  UNL1        0.0421
     11 H         139.0674  137.2709  161.1369 H       1  UNL1        0.2922
     12 C         141.6453  141.5546  168.1087 C.ar    1  UNL1        0.0349
     13 C         143.0669  141.3607  168.5461 C.ar    1  UNL1        0.0061
     14 C         143.6311  142.1979  169.6556 C.ar    1  UNL1        0.0367
     15 C         142.7736  143.2290  170.3275 C.ar    1  UNL1        0.1337
     16 O         143.3378  144.0662  171.4370 O.3     1  UNL1       -0.5055
     17 C         141.3520  143.4229  169.8901 C.ar    1  UNL1        0.0367
     18 C         140.7879  142.5857  168.7806 C.ar    1  UNL1        0.0061
     19 H         144.2258  143.9450  171.7102 H       1  UNL1        0.2922
     20 O         143.9385  141.2098  164.8179 O.2     1  UNL1       -0.2698
     21 C         142.5243  141.6865  164.9687 C.2     1  UNL1        0.2521
     22 N         142.1492  143.0717  164.5321 N.am    1  UNL1       -0.2759
     23 C         142.8856  144.2274  163.9221 C.3     1  UNL1        0.0955
     24 C         141.6188  145.0306  163.9147 C.3     1  UNL1        0.0430
     25 C         140.8824  143.8749  164.5247 C.3     1  UNL1        0.0955
     26 C         141.5431  140.0705  162.3753 C.3     1  UNL1        0.1023
     27 N         141.1144  141.3498  161.7201 N.3     1  UNL1       -0.2687
     28 C         139.7240  141.9128  161.7106 C.3     1  UNL1        0.0726
     29 C         139.7510  143.2018  160.9439 C.3     1  UNL1        0.0235
     30 C         141.1581  143.4355  160.4795 C.3     1  UNL1        0.0707
     31 C         142.4807  143.8663  159.9183 C.3     1  UNL1        0.1458
     32 O         141.8371  145.0935  159.3437 O.3     1  UNL1       -0.3535
     33 C         140.5145  144.6625  159.9049 C.3     1  UNL1        0.1458
     34 C         142.0007  142.2909  160.9592 C.3     1  UNL1        0.0772
@<TRIPOS>BOND
     1    20    21    2
     2    21     1    1
     3     1     2   ar
     4     2    12    1
     5    12    13   ar
     6    13    14   ar
     7    14    15   ar
     8    15    16    1
     9    15    17   ar
    10    17    18   ar
    11     2     3   ar
    12     3     4   ar
    13     4     5   ar
    14     5     6   ar
    15     6     7   ar
    16     7     8    1
    17     7     9   ar
    18     9    26    1
    19    26    27    1
    20    27    28    1
    21    28    29    1
    22    29    30    1
    23    30    31    1
    24    31    32    1
    25    32    33    1
    26    30    34    1
    27     9    10   ar
    28    21    22   am
    29    22    23    1
    30    23    24    1
    31    24    25    1
    32    10     1   ar
    33    25    22    1
    34    18    12   ar
    35    10     4   ar
    36    34    27    1
    37    33    30    1
    38    16    19    1
    39     8    11    1
@<TRIPOS>MOLECULE
*****
 34 39 0 0 0
SMALL
GASTEIGER

@<TRIPOS>ATOM
      1 C         141.2727  142.5092  165.5683 C.ar    1  UNL1        0.0908
      2 C         142.1643  142.3772  166.7673 C.ar    1  UNL1        0.1496
      3 O         143.5323  142.8575  166.3828 O.2     1  UNL1       -0.4534
      4 C         143.4862  143.2864  164.9461 C.ar    1  UNL1        0.1454
      5 C         144.5354  143.8451  164.0313 C.ar    1  UNL1        0.0406
      6 C         144.1881  144.1886  162.6131 C.ar    1  UNL1        0.0395
      7 C         142.7916  143.9733  162.1097 C.ar    1  UNL1        0.1311
      8 O         142.4443  144.3168  160.6914 O.3     1  UNL1       -0.5058
      9 C         141.7424  143.4146  163.0245 C.ar    1  UNL1        0.0308
     10 C         142.0897  143.0711  164.4427 C.ar    1  UNL1        0.0421
     11 H         143.0997  144.6658  160.1200 H       1  UNL1        0.2922
     12 C         141.7591  141.8563  168.1143 C.ar    1  UNL1        0.0349
     13 C         142.1845  140.4845  168.5470 C.ar    1  UNL1        0.0061
     14 C         141.7792  139.9636  169.8940 C.ar    1  UNL1        0.0367
     15 C         140.9485  140.8145  170.8083 C.ar    1  UNL1        0.1337
     16 O         140.5433  140.2936  172.1553 O.3     1  UNL1       -0.5055
     17 C         140.5231  142.1862  170.3756 C.ar    1  UNL1        0.0367
     18 C         140.9284  142.7071  169.0286 C.ar    1  UNL1        0.0061
     19 H         140.8090  139.4367  172.4256 H       1  UNL1        0.2922
     20 O         138.7800  143.2183  165.3855 O.2     1  UNL1       -0.2698
     21 C         139.8193  142.1435  165.5058 C.2     1  UNL1        0.2521
     22 N         139.4052  140.7029  165.5635 N.am    1  UNL1       -0.2759
     23 C         138.0948  139.9739  165.5297 C.3     1  UNL1        0.0955
     24 C         138.8197  138.6657  165.6452 C.3     1  UNL1        0.0430
     25 C         140.1301  139.3948  165.6790 C.3     1  UNL1        0.0955
     26 C         140.3458  143.1994  162.5212 C.3     1  UNL1        0.1023
     27 N         139.8456  141.8079  162.2691 N.3     1  UNL1       -0.2687
     28 C         138.4202  141.4161  162.0140 C.3     1  UNL1        0.0726
     29 C         138.3765  139.9300  161.8151 C.3     1  UNL1        0.0235
     30 C         139.7748  139.4032  161.9474 C.3     1  UNL1        0.0707
     31 C         141.0775  138.6654  162.0385 C.3     1  UNL1        0.1458
     32 O         140.3647  137.3735  161.7689 O.3     1  UNL1       -0.3535
     33 C         139.0619  138.1114  161.6777 C.3     1  UNL1        0.1458
     34 C         140.6827  140.5639  162.2279 C.3     1  UNL1        0.0772
@<TRIPOS>BOND
     1    20    21    2
     2    21     1    1
     3     1     2   ar
     4     2    12    1
     5    12    13   ar
     6    13    14   ar
     7    14    15   ar
     8    15    16    1
     9    15    17   ar
    10    17    18   ar
    11     2     3   ar
    12     3     4   ar
    13     4     5   ar
    14     5     6   ar
    15     6     7   ar
    16     7     8    1
    17     7     9   ar
    18     9    26    1
    19    26    27    1
    20    27    28    1
    21    28    29    1
    22    29    30    1
    23    30    31    1
    24    31    32    1
    25    32    33    1
    26    30    34    1
    27     9    10   ar
    28    21    22   am
    29    22    23    1
    30    23    24    1
    31    24    25    1
    32    10     1   ar
    33    25    22    1
    34    18    12   ar
    35    10     4   ar
    36    34    27    1
    37    33    30    1
    38    16    19    1
    39     8    11    1
@<TRIPOS>MOLECULE
*****
 34 39 0 0 0
SMALL
GASTEIGER

@<TRIPOS>ATOM
      1 C         141.4725  140.3694  163.3981 C.ar    1  UNL1        0.0908
      2 C         141.4024  139.8361  164.7984 C.ar    1  UNL1        0.1496
      3 O         142.7532  140.0070  165.4276 O.2     1  UNL1       -0.4534
      4 C         143.6583  140.6459  164.4163 C.ar    1  UNL1        0.1454
      5 C         145.1008  141.0526  164.4755 C.ar    1  UNL1        0.0406
      6 C         145.7519  141.6833  163.2804 C.ar    1  UNL1        0.0395
      7 C         144.9603  141.9073  162.0261 C.ar    1  UNL1        0.1311
      8 O         145.6115  142.5380  160.8310 O.3     1  UNL1       -0.5058
      9 C         143.5178  141.5006  161.9669 C.ar    1  UNL1        0.0308
     10 C         142.8667  140.8699  163.1620 C.ar    1  UNL1        0.0421
     11 H         146.5126  142.7921  160.8680 H       1  UNL1        0.2922
     12 C         140.1936  139.2371  165.4542 C.ar    1  UNL1        0.0349
     13 C         139.6185  137.9523  164.9362 C.ar    1  UNL1        0.0061
     14 C         138.4097  137.3533  165.5920 C.ar    1  UNL1        0.0367
     15 C         137.7760  138.0392  166.7658 C.ar    1  UNL1        0.1337
     16 O         136.5673  137.4402  167.4217 O.3     1  UNL1       -0.5055
     17 C         138.3511  139.3241  167.2839 C.ar    1  UNL1        0.0367
     18 C         139.5599  139.9230  166.6280 C.ar    1  UNL1        0.0061
     19 H         136.2080  136.6376  167.0980 H       1  UNL1        0.2922
     20 O         140.2988  139.3903  161.2973 O.2     1  UNL1       -0.2698
     21 C         140.3462  140.3974  162.4078 C.2     1  UNL1        0.2521
     22 N         139.2672  141.4325  162.5282 N.am    1  UNL1       -0.2759
     23 C         138.0252  141.7647  161.7556 C.3     1  UNL1        0.0955
     24 C         137.7415  142.8963  162.6984 C.3     1  UNL1        0.0430
     25 C         138.9835  142.5642  163.4710 C.3     1  UNL1        0.0955
     26 C         142.7263  141.7246  160.7126 C.3     1  UNL1        0.1023
     27 N         141.8210  142.9152  160.5996 N.3     1  UNL1       -0.2687
     28 C         140.9393  143.2447  159.4316 C.3     1  UNL1        0.0726
     29 C         140.2118  144.5186  159.7448 C.3     1  UNL1        0.0235
     30 C         140.6439  144.9764  161.1063 C.3     1  UNL1        0.0707
     31 C         140.9291  145.6148  162.4334 C.3     1  UNL1        0.1458
     32 O         139.9673  146.7192  162.1088 O.3     1  UNL1       -0.3535
     33 C         139.6822  146.0808  160.7817 C.3     1  UNL1        0.1458
     34 C         141.6385  143.9854  161.6346 C.3     1  UNL1        0.0772
@<TRIPOS>BOND
     1    20    21    2
     2    21     1    1
     3     1     2   ar
     4     2    12    1
     5    12    13   ar
     6    13    14   ar
     7    14    15   ar
     8    15    16    1
     9    15    17   ar
    10    17    18   ar
    11     2     3   ar
    12     3     4   ar
    13     4     5   ar
    14     5     6   ar
    15     6     7   ar
    16     7     8    1
    17     7     9   ar
    18     9    26    1
    19    26    27    1
    20    27    28    1
    21    28    29    1
    22    29    30    1
    23    30    31    1
    24    31    32    1
    25    32    33    1
    26    30    34    1
    27     9    10   ar
    28    21    22   am
    29    22    23    1
    30    23    24    1
    31    24    25    1
    32    10     1   ar
    33    25    22    1
    34    18    12   ar
    35    10     4   ar
    36    34    27    1
    37    33    30    1
    38    16    19    1
    39     8    11    1
@<TRIPOS>MOLECULE
*****
 34 39 0 0 0
SMALL
GASTEIGER

@<TRIPOS>ATOM
      1 C         140.6982  140.7420  165.3160 C.ar    1  UNL1        0.0908
      2 C         141.3798  140.8203  166.6498 C.ar    1  UNL1        0.1496
      3 O         142.7359  140.1936  166.5148 O.2     1  UNL1       -0.4534
      4 C         142.8924  139.7281  165.0975 C.ar    1  UNL1        0.1454
      5 C         144.0190  139.0393  164.3858 C.ar    1  UNL1        0.0406
      6 C         143.8861  138.6896  162.9333 C.ar    1  UNL1        0.0395
      7 C         142.6267  139.0285  162.1924 C.ar    1  UNL1        0.1311
      8 O         142.4938  138.6787  160.7397 O.3     1  UNL1       -0.5058
      9 C         141.5001  139.7172  162.9040 C.ar    1  UNL1        0.0308
     10 C         141.6330  140.0670  164.3565 C.ar    1  UNL1        0.0421
     11 H         143.1976  138.2484  160.2952 H       1  UNL1        0.2922
     12 C         140.8061  141.4199  167.8994 C.ar    1  UNL1        0.0349
     13 C         141.0180  142.8742  168.1991 C.ar    1  UNL1        0.0061
     14 C         140.4443  143.4738  169.4487 C.ar    1  UNL1        0.0367
     15 C         139.6586  142.6191  170.3984 C.ar    1  UNL1        0.1337
     16 O         139.0849  143.2187  171.6479 O.3     1  UNL1       -0.5055
     17 C         139.4467  141.1648  170.0987 C.ar    1  UNL1        0.0367
     18 C         140.0204  140.5651  168.8491 C.ar    1  UNL1        0.0061
     19 H         139.2173  144.1272  171.8352 H       1  UNL1        0.2922
     20 O         138.1409  140.3332  165.1081 O.2     1  UNL1       -0.2698
     21 C         139.3231  141.2497  164.9974 C.2     1  UNL1        0.2521
     22 N         139.1302  142.6740  164.5681 N.am    1  UNL1       -0.2759
     23 C         137.9498  143.5141  164.1797 C.3     1  UNL1        0.0955
     24 C         138.8575  144.6882  163.9610 C.3     1  UNL1        0.0430
     25 C         140.0379  143.8481  164.3494 C.3     1  UNL1        0.0955
     26 C         140.2407  140.0562  162.1631 C.3     1  UNL1        0.1023
     27 N         140.1112  141.3804  161.4706 N.3     1  UNL1       -0.2687
     28 C         138.8488  141.9592  160.9036 C.3     1  UNL1        0.0726
     29 C         139.1787  143.2949  160.3061 C.3     1  UNL1        0.0235
     30 C         140.6450  143.5417  160.5037 C.3     1  UNL1        0.0707
     31 C         142.0730  143.9925  160.5906 C.3     1  UNL1        0.1458
     32 O         141.7157  145.2619  159.8757 O.3     1  UNL1       -0.3535
     33 C         140.2878  144.8110  159.7888 C.3     1  UNL1        0.1458
     34 C         141.2213  142.3584  161.2234 C.3     1  UNL1        0.0772
@<TRIPOS>BOND
     1    20    21    2
     2    21     1    1
     3     1     2   ar
     4     2    12    1
     5    12    13   ar
     6    13    14   ar
     7    14    15   ar
     8    15    16    1
     9    15    17   ar
    10    17    18   ar
    11     2     3   ar
    12     3     4   ar
    13     4     5   ar
    14     5     6   ar
    15     6     7   ar
    16     7     8    1
    17     7     9   ar
    18     9    26    1
    19    26    27    1
    20    27    28    1
    21    28    29    1
    22    29    30    1
    23    30    31    1
    24    31    32    1
    25    32    33    1
    26    30    34    1
    27     9    10   ar
    28    21    22   am
    29    22    23    1
    30    23    24    1
    31    24    25    1
    32    10     1   ar
    33    25    22    1
    34    18    12   ar
    35    10     4   ar
    36    34    27    1
    37    33    30    1
    38    16    19    1
    39     8    11    1
