@<TRIPOS>MOLECULE
*****
 35 38 0 0 0
SMALL
GASTEIGER

@<TRIPOS>ATOM
      1 N         142.5681  140.4206  167.9689 N.3     1  UNL1       -0.2653
      2 C         142.8756  139.4932  166.8309 C.3     1  UNL1        0.1036
      3 C         143.4510  140.0353  165.5561 C.3     1  UNL1        0.1470
      4 C         144.0265  140.5773  164.2813 C.3     1  UNL1        0.1035
      5 N         144.2944  142.0469  164.1447 N.3     1  UNL1       -0.2673
      6 C         143.9869  142.9743  165.2828 C.3     1  UNL1        0.1035
      7 C         143.4114  142.4322  166.5575 C.3     1  UNL1        0.1470
      8 C         142.8360  141.8901  167.8323 C.3     1  UNL1        0.1036
      9 O         143.7189  141.5048  165.4195 O.3     1  UNL1       -0.3530
     10 C         141.9927  139.8785  169.2438 C.3     1  UNL1        0.1202
     11 C         140.5147  139.9497  169.4894 C.3     1  UNL1        0.2226
     12 O         139.6396  140.7514  168.5719 O.3     1  UNL1       -0.4740
     13 C         138.6712  139.1992  164.4606 C.ar    1  UNL1        0.0686
     14 C         138.3384  138.3771  165.6703 C.ar    1  UNL1        0.0134
     15 C         138.6612  138.8945  167.0407 C.ar    1  UNL1        0.0376
     16 C         139.3168  140.2340  167.2015 C.ar    1  UNL1        0.1387
     17 C         139.6496  141.0561  165.9918 C.ar    1  UNL1        0.0376
     18 C         139.3268  140.5387  164.6213 C.ar    1  UNL1        0.0134
     19 N         138.0256  138.1644  161.7198 N.1     1  UNL1       -0.1908
     20 C         138.3484  138.6818  163.0902 C.1     1  UNL1        0.1004
     21 C         144.8698  142.5890  162.8699 C.3     1  UNL1        0.0913
     22 C         144.1321  143.6473  162.1044 C.3     1  UNL1        0.1087
     23 N         142.7853  143.3464  161.5167 N.3     1  UNL1       -0.1779
     24 H         142.7829  142.3547  161.2783 H       1  UNL1        0.1488
     25 S         141.5433  143.6022  162.3179 S.O2    1  UNL1        0.0609
     26 O         141.6886  145.0749  162.0730 O.2     1  UNL1       -0.1530
     27 O         141.3980  142.1295  162.5628 O.2     1  UNL1       -0.1530
     28 C         140.3012  143.8579  163.1192 C.ar    1  UNL1        0.1315
     29 C         140.4084  144.2808  164.5543 C.ar    1  UNL1        0.0206
     30 C         139.1664  144.5365  165.3556 C.ar    1  UNL1        0.0014
     31 C         137.8173  144.3693  164.7217 C.ar    1  UNL1        0.0008
     32 C         137.7101  143.9463  163.2865 C.ar    1  UNL1        0.0116
     33 C         138.9521  143.6906  162.4853 C.ar    1  UNL1        0.0870
     34 C         138.8450  143.2677  161.0501 C.1     1  UNL1        0.1018
     35 N         138.7378  142.8448  159.6150 N.1     1  UNL1       -0.1908
@<TRIPOS>BOND
     1    19    20    3
     2    20    13    1
     3    13    14   ar
     4    14    15   ar
     5    15    16   ar
     6    16    12    1
     7    12    11    1
     8    11    10    1
     9    10     1    1
    10     1     2    1
    11     2     3    1
    12     3     4    1
    13     4     5    1
    14     5    21    1
    15    21    22    1
    16    22    23    1
    17    23    25    1
    18    25    26    2
    19    25    27    2
    20    25    28    1
    21    28    29   ar
    22    29    30   ar
    23    30    31   ar
    24    31    32   ar
    25    32    33   ar
    26    33    34    1
    27    34    35    3
    28     5     6    1
    29     6     7    1
    30     7     8    1
    31     7     9    1
    32    16    17   ar
    33    17    18   ar
    34    18    13   ar
    35     8     1    1
    36     9     3    1
    37    33    28   ar
    38    23    24    1
@<TRIPOS>MOLECULE
*****
 35 38 0 0 0
SMALL
GASTEIGER

@<TRIPOS>ATOM
      1 N         142.2058  141.6819  167.2969 N.3     1  UNL1       -0.2653
      2 C         142.9110  142.1240  166.0491 C.3     1  UNL1        0.1036
      3 C         142.1972  142.9843  165.0489 C.3     1  UNL1        0.1470
      4 C         141.4833  143.8445  164.0486 C.3     1  UNL1        0.1035
      5 N         140.0642  144.2627  164.2963 N.3     1  UNL1       -0.2673
      6 C         139.3590  143.8205  165.5442 C.3     1  UNL1        0.1035
      7 C         140.0728  142.9603  166.5444 C.3     1  UNL1        0.1470
      8 C         140.7867  142.1001  167.5446 C.3     1  UNL1        0.1036
      9 O         140.7781  143.4024  165.2966 O.3     1  UNL1       -0.3530
     10 C         142.9196  140.8217  168.2971 C.3     1  UNL1        0.1202
     11 C         142.6386  139.3494  168.3563 C.3     1  UNL1        0.2226
     12 O         143.4754  138.3935  167.5588 O.3     1  UNL1       -0.4740
     13 C         143.7846  138.8586  163.0935 C.ar    1  UNL1        0.0686
     14 C         142.5318  138.3047  163.7050 C.ar    1  UNL1        0.0134
     15 C         142.4287  138.1497  165.1934 C.ar    1  UNL1        0.0376
     16 C         143.5785  138.5485  166.0704 C.ar    1  UNL1        0.1387
     17 C         144.8312  139.1023  165.4590 C.ar    1  UNL1        0.0376
     18 C         144.9343  139.2574  163.9705 C.ar    1  UNL1        0.0134
     19 N         143.9906  139.1686  160.1168 N.1     1  UNL1       -0.1908
     20 C         143.8876  139.0136  161.6052 C.1     1  UNL1        0.1004
     21 C         139.3504  145.1229  163.2961 C.3     1  UNL1        0.0913
     22 C         138.0973  144.6258  162.6381 C.3     1  UNL1        0.1087
     23 N         138.1644  143.4956  161.6543 N.3     1  UNL1       -0.1779
     24 H         138.9593  143.6838  161.0434 H       1  UNL1        0.1488
     25 S         138.3172  142.0852  162.1415 S.O2    1  UNL1        0.0609
     26 O         139.6961  142.0314  161.5535 O.2     1  UNL1       -0.1530
     27 O         136.9384  142.1390  162.7296 O.2     1  UNL1       -0.1530
     28 C         138.4699  140.6748  162.6288 C.ar    1  UNL1        0.1315
     29 C         138.8125  140.4105  164.0650 C.ar    1  UNL1        0.0206
     30 C         138.9652  139.0001  164.5524 C.ar    1  UNL1        0.0014
     31 C         138.7754  137.8541  163.6034 C.ar    1  UNL1        0.0008
     32 C         138.4328  138.1184  162.1672 C.ar    1  UNL1        0.0116
     33 C         138.2800  139.5287  161.6799 C.ar    1  UNL1        0.0870
     34 C         137.9375  139.7931  160.2437 C.1     1  UNL1        0.1018
     35 N         137.5949  140.0574  158.8074 N.1     1  UNL1       -0.1908
@<TRIPOS>BOND
     1    19    20    3
     2    20    13    1
     3    13    14   ar
     4    14    15   ar
     5    15    16   ar
     6    16    12    1
     7    12    11    1
     8    11    10    1
     9    10     1    1
    10     1     2    1
    11     2     3    1
    12     3     4    1
    13     4     5    1
    14     5    21    1
    15    21    22    1
    16    22    23    1
    17    23    25    1
    18    25    26    2
    19    25    27    2
    20    25    28    1
    21    28    29   ar
    22    29    30   ar
    23    30    31   ar
    24    31    32   ar
    25    32    33   ar
    26    33    34    1
    27    34    35    3
    28     5     6    1
    29     6     7    1
    30     7     8    1
    31     7     9    1
    32    16    17   ar
    33    17    18   ar
    34    18    13   ar
    35     8     1    1
    36     9     3    1
    37    33    28   ar
    38    23    24    1
@<TRIPOS>MOLECULE
*****
 35 38 0 0 0
SMALL
GASTEIGER

@<TRIPOS>ATOM
      1 N         139.3838  137.7116  164.5536 N.3     1  UNL1       -0.2653
      2 C         138.7824  137.8754  163.1893 C.3     1  UNL1        0.1036
      3 C         139.6716  138.0205  161.9901 C.3     1  UNL1        0.1470
      4 C         140.5609  138.1657  160.7908 C.3     1  UNL1        0.1035
      5 N         142.0517  138.1472  160.9560 N.3     1  UNL1       -0.2673
      6 C         142.6532  137.9835  162.3204 C.3     1  UNL1        0.1035
      7 C         141.7639  137.8383  163.5195 C.3     1  UNL1        0.1470
      8 C         140.8746  137.6931  164.7187 C.3     1  UNL1        0.1036
      9 O         141.1624  138.0020  162.1552 O.3     1  UNL1       -0.3530
     10 C         138.4945  137.5664  165.7528 C.3     1  UNL1        0.1202
     11 C         138.1298  138.7726  166.5665 C.3     1  UNL1        0.2226
     12 O         139.1176  139.8883  166.7382 O.3     1  UNL1       -0.4740
     13 C         139.0412  143.4118  163.9402 C.ar    1  UNL1        0.0686
     14 C         138.0375  142.3081  163.7839 C.ar    1  UNL1        0.0134
     15 C         138.0630  141.1336  164.7166 C.ar    1  UNL1        0.0376
     16 C         139.0922  141.0628  165.8055 C.ar    1  UNL1        0.1387
     17 C         140.0958  142.1664  165.9618 C.ar    1  UNL1        0.0376
     18 C         140.0704  143.3410  165.0291 C.ar    1  UNL1        0.0134
     19 N         138.9902  145.7608  162.0749 N.1     1  UNL1       -0.1908
     20 C         139.0157  144.5863  163.0075 C.1     1  UNL1        0.1004
     21 C         142.9410  138.2924  159.7568 C.3     1  UNL1        0.0913
     22 C         143.7397  139.5472  159.5629 C.3     1  UNL1        0.1087
     23 N         143.0735  140.8860  159.6802 N.3     1  UNL1       -0.1779
     24 H         142.0707  140.7252  159.5852 H       1  UNL1        0.1488
     25 S         143.2642  141.7127  160.9172 S.O2    1  UNL1        0.0609
     26 O         141.8875  141.3378  161.3799 O.2     1  UNL1       -0.1530
     27 O         144.6408  142.0876  160.4545 O.2     1  UNL1       -0.1530
     28 C         143.4549  142.5395  162.1542 C.ar    1  UNL1        0.1315
     29 C         144.1583  141.9573  163.3443 C.ar    1  UNL1        0.0206
     30 C         144.3490  142.7840  164.5813 C.ar    1  UNL1        0.0014
     31 C         143.8363  144.1928  164.6282 C.ar    1  UNL1        0.0008
     32 C         143.1329  144.7750  163.4381 C.ar    1  UNL1        0.0116
     33 C         142.9421  143.9483  162.2011 C.ar    1  UNL1        0.0870
     34 C         142.2387  144.5304  161.0110 C.1     1  UNL1        0.1018
     35 N         141.5353  145.1126  159.8210 N.1     1  UNL1       -0.1908
@<TRIPOS>BOND
     1    19    20    3
     2    20    13    1
     3    13    14   ar
     4    14    15   ar
     5    15    16   ar
     6    16    12    1
     7    12    11    1
     8    11    10    1
     9    10     1    1
    10     1     2    1
    11     2     3    1
    12     3     4    1
    13     4     5    1
    14     5    21    1
    15    21    22    1
    16    22    23    1
    17    23    25    1
    18    25    26    2
    19    25    27    2
    20    25    28    1
    21    28    29   ar
    22    29    30   ar
    23    30    31   ar
    24    31    32   ar
    25    32    33   ar
    26    33    34    1
    27    34    35    3
    28     5     6    1
    29     6     7    1
    30     7     8    1
    31     7     9    1
    32    16    17   ar
    33    17    18   ar
    34    18    13   ar
    35     8     1    1
    36     9     3    1
    37    33    28   ar
    38    23    24    1
@<TRIPOS>MOLECULE
*****
 35 38 0 0 0
SMALL
GASTEIGER

@<TRIPOS>ATOM
      1 N         142.5681  140.3457  159.5571 N.3     1  UNL1       -0.2653
      2 C         143.4063  141.4156  160.1915 C.3     1  UNL1        0.1036
      3 C         142.7698  142.6948  160.6483 C.3     1  UNL1        0.1470
      4 C         142.1334  143.9740  161.1051 C.3     1  UNL1        0.1035
      5 N         140.6587  144.1831  160.9275 N.3     1  UNL1       -0.2673
      6 C         139.8204  143.1131  160.2931 C.3     1  UNL1        0.1035
      7 C         140.4569  141.8339  159.8363 C.3     1  UNL1        0.1470
      8 C         141.0934  140.5548  159.3795 C.3     1  UNL1        0.1036
      9 O         141.2951  142.9039  160.4707 O.3     1  UNL1       -0.3530
     10 C         143.2045  139.0664  159.1003 C.3     1  UNL1        0.1202
     11 C         143.1304  137.8419  159.9634 C.3     1  UNL1        0.2226
     12 O         141.9999  137.6767  160.9354 O.3     1  UNL1       -0.4740
     13 C         142.6476  138.5298  165.3061 C.ar    1  UNL1        0.0686
     14 C         143.6375  139.0203  164.2914 C.ar    1  UNL1        0.0134
     15 C         143.4216  138.7359  162.8345 C.ar    1  UNL1        0.0376
     16 C         142.2158  137.9610  162.3923 C.ar    1  UNL1        0.1387
     17 C         141.2259  137.4705  163.4069 C.ar    1  UNL1        0.0376
     18 C         141.4418  137.7549  164.8638 C.ar    1  UNL1        0.0134
     19 N         143.0794  139.0985  168.2198 N.1     1  UNL1       -0.1908
     20 C         142.8635  138.8141  166.7629 C.1     1  UNL1        0.1004
     21 C         140.0222  145.4623  161.3843 C.3     1  UNL1        0.0913
     22 C         139.2588  145.5010  162.6749 C.3     1  UNL1        0.1087
     23 N         139.9806  145.3297  163.9786 N.3     1  UNL1       -0.1779
     24 H         139.6631  146.0804  164.5919 H       1  UNL1        0.1488
     25 S         139.8408  144.0515  164.7509 S.O2    1  UNL1        0.0609
     26 O         141.1531  143.5761  164.2015 O.2     1  UNL1       -0.1530
     27 O         138.5285  144.5268  165.3002 O.2     1  UNL1       -0.1530
     28 C         139.7010  142.7731  165.5232 C.ar    1  UNL1        0.1315
     29 C         140.4232  142.6016  166.8267 C.ar    1  UNL1        0.0206
     30 C         140.2834  141.3233  167.5990 C.ar    1  UNL1        0.0014
     31 C         139.4214  140.2166  167.0678 C.ar    1  UNL1        0.0008
     32 C         138.6992  140.3882  165.7644 C.ar    1  UNL1        0.0116
     33 C         138.8390  141.6664  164.9921 C.ar    1  UNL1        0.0870
     34 C         138.1168  141.8380  163.6886 C.1     1  UNL1        0.1018
     35 N         137.3946  142.0095  162.3852 N.1     1  UNL1       -0.1908
@<TRIPOS>BOND
     1    19    20    3
     2    20    13    1
     3    13    14   ar
     4    14    15   ar
     5    15    16   ar
     6    16    12    1
     7    12    11    1
     8    11    10    1
     9    10     1    1
    10     1     2    1
    11     2     3    1
    12     3     4    1
    13     4     5    1
    14     5    21    1
    15    21    22    1
    16    22    23    1
    17    23    25    1
    18    25    26    2
    19    25    27    2
    20    25    28    1
    21    28    29   ar
    22    29    30   ar
    23    30    31   ar
    24    31    32   ar
    25    32    33   ar
    26    33    34    1
    27    34    35    3
    28     5     6    1
    29     6     7    1
    30     7     8    1
    31     7     9    1
    32    16    17   ar
    33    17    18   ar
    34    18    13   ar
    35     8     1    1
    36     9     3    1
    37    33    28   ar
    38    23    24    1
@<TRIPOS>MOLECULE
*****
 35 38 0 0 0
SMALL
GASTEIGER

@<TRIPOS>ATOM
      1 N         141.3176  143.6437  161.2080 N.3     1  UNL1       -0.2653
      2 C         140.9223  142.2022  161.0835 C.3     1  UNL1        0.1036
      3 C         141.7297  141.1411  161.7705 C.3     1  UNL1        0.1470
      4 C         142.5372  140.0799  162.4576 C.3     1  UNL1        0.1035
      5 N         143.7399  140.4603  163.2692 N.3     1  UNL1       -0.2673
      6 C         144.1351  141.9020  163.3938 C.3     1  UNL1        0.1035
      7 C         143.3277  142.9631  162.7067 C.3     1  UNL1        0.1470
      8 C         142.5203  144.0242  162.0196 C.3     1  UNL1        0.1036
      9 O         142.9324  141.5215  162.5821 O.3     1  UNL1       -0.3530
     10 C         140.5101  144.7049  160.5210 C.3     1  UNL1        0.1202
     11 C         139.9519  145.8516  161.3106 C.3     1  UNL1        0.2226
     12 O         138.7561  145.6435  162.1920 O.3     1  UNL1       -0.4740
     13 C         138.2998  141.8053  164.4963 C.ar    1  UNL1        0.0686
     14 C         137.5512  142.0023  163.2115 C.ar    1  UNL1        0.0134
     15 C         137.7032  143.2817  162.4434 C.ar    1  UNL1        0.0376
     16 C         138.6040  144.3641  162.9601 C.ar    1  UNL1        0.1387
     17 C         139.3526  144.1672  164.2449 C.ar    1  UNL1        0.0376
     18 C         139.2006  142.8878  165.0130 C.ar    1  UNL1        0.0134
     19 N         137.9956  139.2466  166.0325 N.1     1  UNL1       -0.1908
     20 C         138.1477  140.5259  165.2644 C.1     1  UNL1        0.1004
     21 C         144.5473  139.3992  163.9563 C.3     1  UNL1        0.0913
     22 C         144.3432  139.1300  165.4178 C.3     1  UNL1        0.1087
     23 N         142.9995  138.6905  165.9189 N.3     1  UNL1       -0.1779
     24 H         143.1386  137.7957  166.3885 H       1  UNL1        0.1488
     25 S         142.2308  139.5622  166.8671 S.O2    1  UNL1        0.0609
     26 O         141.3733  140.0398  165.7329 O.2     1  UNL1       -0.1530
     27 O         143.0884  139.0847  168.0014 O.2     1  UNL1       -0.1530
     28 C         141.4622  140.4340  167.8154 C.ar    1  UNL1        0.1315
     29 C         140.3042  139.8685  168.5830 C.ar    1  UNL1        0.0206
     30 C         139.5355  140.7402  169.5313 C.ar    1  UNL1        0.0014
     31 C         139.9248  142.1775  169.7119 C.ar    1  UNL1        0.0008
     32 C         141.0828  142.7430  168.9443 C.ar    1  UNL1        0.0116
     33 C         141.8515  141.8713  167.9961 C.ar    1  UNL1        0.0870
     34 C         143.0095  142.4368  167.2285 C.1     1  UNL1        0.1018
     35 N         144.1675  143.0024  166.4609 N.1     1  UNL1       -0.1908
@<TRIPOS>BOND
     1    19    20    3
     2    20    13    1
     3    13    14   ar
     4    14    15   ar
     5    15    16   ar
     6    16    12    1
     7    12    11    1
     8    11    10    1
     9    10     1    1
    10     1     2    1
    11     2     3    1
    12     3     4    1
    13     4     5    1
    14     5    21    1
    15    21    22    1
    16    22    23    1
    17    23    25    1
    18    25    26    2
    19    25    27    2
    20    25    28    1
    21    28    29   ar
    22    29    30   ar
    23    30    31   ar
    24    31    32   ar
    25    32    33   ar
    26    33    34    1
    27    34    35    3
    28     5     6    1
    29     6     7    1
    30     7     8    1
    31     7     9    1
    32    16    17   ar
    33    17    18   ar
    34    18    13   ar
    35     8     1    1
    36     9     3    1
    37    33    28   ar
    38    23    24    1
@<TRIPOS>MOLECULE
*****
 35 38 0 0 0
SMALL
GASTEIGER

@<TRIPOS>ATOM
      1 N         139.4073  137.7987  164.6088 N.3     1  UNL1       -0.2653
      2 C         138.7985  137.9682  163.2484 C.3     1  UNL1        0.1036
      3 C         139.6810  138.0858  162.0412 C.3     1  UNL1        0.1470
      4 C         140.5635  138.2034  160.8339 C.3     1  UNL1        0.1035
      5 N         142.0547  138.1513  160.9871 N.3     1  UNL1       -0.2673
      6 C         142.6635  137.9817  162.3476 C.3     1  UNL1        0.1035
      7 C         141.7810  137.8642  163.5547 C.3     1  UNL1        0.1470
      8 C         140.8985  137.7466  164.7619 C.3     1  UNL1        0.1036
      9 O         141.1722  138.0338  162.1944 O.3     1  UNL1       -0.3530
     10 C         138.5248  137.6811  165.8160 C.3     1  UNL1        0.1202
     11 C         138.0317  138.9173  166.5079 C.3     1  UNL1        0.2226
     12 O         138.3593  139.1491  167.9532 O.3     1  UNL1       -0.4740
     13 C         142.0778  141.4185  169.0814 C.ar    1  UNL1        0.0686
     14 C         141.0861  141.0309  170.1380 C.ar    1  UNL1        0.0134
     15 C         139.8466  140.2745  169.7619 C.ar    1  UNL1        0.0376
     16 C         139.5988  139.9056  168.3293 C.ar    1  UNL1        0.1387
     17 C         140.5904  140.2932  167.2727 C.ar    1  UNL1        0.0376
     18 C         141.8300  141.0497  167.6487 C.ar    1  UNL1        0.0134
     19 N         144.5567  142.9314  169.8335 N.1     1  UNL1       -0.1908
     20 C         143.3173  142.1750  169.4574 C.1     1  UNL1        0.1004
     21 C         142.9372  138.2689  159.7799 C.3     1  UNL1        0.0913
     22 C         143.4843  139.6066  159.3782 C.3     1  UNL1        0.1087
     23 N         142.7529  140.8603  159.7564 N.3     1  UNL1       -0.1779
     24 H         141.7642  140.6173  159.8179 H       1  UNL1        0.1488
     25 S         143.1021  141.5782  161.0263 S.O2    1  UNL1        0.0609
     26 O         141.7068  141.3615  161.5325 O.2     1  UNL1       -0.1530
     27 O         144.4973  141.7949  160.5201 O.2     1  UNL1       -0.1530
     28 C         143.4513  142.2961  162.2963 C.ar    1  UNL1        0.1315
     29 C         144.2030  141.5810  163.3796 C.ar    1  UNL1        0.0206
     30 C         144.5523  142.2988  164.6495 C.ar    1  UNL1        0.0014
     31 C         144.1499  143.7317  164.8361 C.ar    1  UNL1        0.0008
     32 C         143.3982  144.4468  163.7527 C.ar    1  UNL1        0.0116
     33 C         143.0489  143.7290  162.4828 C.ar    1  UNL1        0.0870
     34 C         142.2973  144.4441  161.3995 C.1     1  UNL1        0.1018
     35 N         141.5456  145.1591  160.3161 N.1     1  UNL1       -0.1908
@<TRIPOS>BOND
     1    19    20    3
     2    20    13    1
     3    13    14   ar
     4    14    15   ar
     5    15    16   ar
     6    16    12    1
     7    12    11    1
     8    11    10    1
     9    10     1    1
    10     1     2    1
    11     2     3    1
    12     3     4    1
    13     4     5    1
    14     5    21    1
    15    21    22    1
    16    22    23    1
    17    23    25    1
    18    25    26    2
    19    25    27    2
    20    25    28    1
    21    28    29   ar
    22    29    30   ar
    23    30    31   ar
    24    31    32   ar
    25    32    33   ar
    26    33    34    1
    27    34    35    3
    28     5     6    1
    29     6     7    1
    30     7     8    1
    31     7     9    1
    32    16    17   ar
    33    17    18   ar
    34    18    13   ar
    35     8     1    1
    36     9     3    1
    37    33    28   ar
    38    23    24    1
@<TRIPOS>MOLECULE
*****
 35 38 0 0 0
SMALL
GASTEIGER

@<TRIPOS>ATOM
      1 N         139.4764  137.6021  164.4265 N.3     1  UNL1       -0.2653
      2 C         140.9338  137.7615  164.7435 C.3     1  UNL1        0.1036
      3 C         141.9111  138.0642  163.6466 C.3     1  UNL1        0.1470
      4 C         142.8885  138.3669  162.5497 C.3     1  UNL1        0.1035
      5 N         142.4084  138.5101  161.1358 N.3     1  UNL1       -0.2673
      6 C         140.9509  138.3507  160.8189 C.3     1  UNL1        0.1035
      7 C         139.9736  138.0480  161.9158 C.3     1  UNL1        0.1470
      8 C         138.9963  137.7453  163.0127 C.3     1  UNL1        0.1036
      9 O         141.4310  138.2074  162.2328 O.3     1  UNL1       -0.3530
     10 C         138.4990  137.2994  165.5235 C.3     1  UNL1        0.1202
     11 C         138.0354  138.3941  166.4381 C.3     1  UNL1        0.2226
     12 O         138.4214  139.8169  166.1608 O.3     1  UNL1       -0.4740
     13 C         141.9610  141.6379  168.2596 C.ar    1  UNL1        0.0686
     14 C         141.1391  140.5887  168.9480 C.ar    1  UNL1        0.0134
     15 C         139.9592  139.9817  168.2484 C.ar    1  UNL1        0.0376
     16 C         139.6012  140.4238  166.8604 C.ar    1  UNL1        0.1387
     17 C         140.4230  141.4730  166.1721 C.ar    1  UNL1        0.0376
     18 C         141.6030  142.0800  166.8717 C.ar    1  UNL1        0.0134
     19 N         144.3207  142.8518  169.6588 N.1     1  UNL1       -0.1908
     20 C         143.1408  142.2449  168.9592 C.1     1  UNL1        0.1004
     21 C         143.3857  138.8128  160.0390 C.3     1  UNL1        0.0913
     22 C         143.8281  140.2256  159.7974 C.3     1  UNL1        0.1087
     23 N         142.8085  141.3148  159.6425 N.3     1  UNL1       -0.1779
     24 H         141.9005  140.8580  159.5563 H       1  UNL1        0.1488
     25 S         142.6658  142.3650  160.7039 S.O2    1  UNL1        0.0609
     26 O         143.6543  143.2306  159.9802 O.2     1  UNL1       -0.1530
     27 O         141.6773  141.4995  161.4275 O.2     1  UNL1       -0.1530
     28 C         142.5231  143.4153  161.7653 C.ar    1  UNL1        0.1315
     29 C         141.3622  144.3645  161.7299 C.ar    1  UNL1        0.0206
     30 C         141.2195  145.4147  162.7913 C.ar    1  UNL1        0.0014
     31 C         142.2376  145.5157  163.8881 C.ar    1  UNL1        0.0008
     32 C         143.3986  144.5665  163.9235 C.ar    1  UNL1        0.0116
     33 C         143.5413  143.5163  162.8621 C.ar    1  UNL1        0.0870
     34 C         144.7022  142.5671  162.8975 C.1     1  UNL1        0.1018
     35 N         145.8632  141.6179  162.9329 N.1     1  UNL1       -0.1908
@<TRIPOS>BOND
     1    19    20    3
     2    20    13    1
     3    13    14   ar
     4    14    15   ar
     5    15    16   ar
     6    16    12    1
     7    12    11    1
     8    11    10    1
     9    10     1    1
    10     1     2    1
    11     2     3    1
    12     3     4    1
    13     4     5    1
    14     5    21    1
    15    21    22    1
    16    22    23    1
    17    23    25    1
    18    25    26    2
    19    25    27    2
    20    25    28    1
    21    28    29   ar
    22    29    30   ar
    23    30    31   ar
    24    31    32   ar
    25    32    33   ar
    26    33    34    1
    27    34    35    3
    28     5     6    1
    29     6     7    1
    30     7     8    1
    31     7     9    1
    32    16    17   ar
    33    17    18   ar
    34    18    13   ar
    35     8     1    1
    36     9     3    1
    37    33    28   ar
    38    23    24    1
@<TRIPOS>MOLECULE
*****
 35 38 0 0 0
SMALL
GASTEIGER

@<TRIPOS>ATOM
      1 N         141.2588  143.7028  158.5180 N.3     1  UNL1       -0.2653
      2 C         141.4071  144.8785  159.4376 C.3     1  UNL1        0.1036
      3 C         140.5300  144.9988  160.6484 C.3     1  UNL1        0.1470
      4 C         139.6529  145.1192  161.8593 C.3     1  UNL1        0.1035
      5 N         138.6275  144.0638  162.1506 N.3     1  UNL1       -0.2673
      6 C         138.4792  142.8881  161.2309 C.3     1  UNL1        0.1035
      7 C         139.3564  142.7678  160.0201 C.3     1  UNL1        0.1470
      8 C         140.2335  142.6474  158.8093 C.3     1  UNL1        0.1036
      9 O         139.5046  143.9435  160.9397 O.3     1  UNL1       -0.3530
     10 C         142.1360  143.5824  157.3071 C.3     1  UNL1        0.1202
     11 C         143.3774  142.7423  157.3608 C.3     1  UNL1        0.2226
     12 O         144.4085  142.9945  158.4207 O.3     1  UNL1       -0.4740
     13 C         144.3492  140.6026  162.2319 C.ar    1  UNL1        0.0686
     14 C         144.9207  141.9895  162.2256 C.ar    1  UNL1        0.0134
     15 C         144.9404  142.7868  160.9553 C.ar    1  UNL1        0.0376
     16 C         144.3887  142.1972  159.6911 C.ar    1  UNL1        0.1387
     17 C         143.8173  140.8104  159.6974 C.ar    1  UNL1        0.0376
     18 C         143.7975  140.0131  160.9678 C.ar    1  UNL1        0.0134
     19 N         144.3097  139.0081  164.7727 N.1     1  UNL1       -0.1908
     20 C         144.3294  139.8054  163.5023 C.1     1  UNL1        0.1004
     21 C         137.7504  144.1842  163.3614 C.3     1  UNL1        0.0913
     22 C         137.9821  143.2947  164.5468 C.3     1  UNL1        0.1087
     23 N         137.4400  141.8961  164.5524 N.3     1  UNL1       -0.1779
     24 H         136.7363  141.8501  163.8154 H       1  UNL1        0.1488
     25 S         138.3635  140.7329  164.3426 S.O2    1  UNL1        0.0609
     26 O         137.4426  140.1918  163.2895 O.2     1  UNL1       -0.1530
     27 O         139.2844  141.2741  165.3957 O.2     1  UNL1       -0.1530
     28 C         139.2871  139.5697  164.1328 C.ar    1  UNL1        0.1315
     29 C         140.2801  139.5938  163.0088 C.ar    1  UNL1        0.0206
     30 C         141.2037  138.4307  162.7989 C.ar    1  UNL1        0.0014
     31 C         141.1343  137.2435  163.7130 C.ar    1  UNL1        0.0008
     32 C         140.1413  137.2194  164.8370 C.ar    1  UNL1        0.0116
     33 C         139.2177  138.3825  165.0469 C.ar    1  UNL1        0.0870
     34 C         138.2247  138.3584  166.1709 C.1     1  UNL1        0.1018
     35 N         137.2317  138.3344  167.2949 N.1     1  UNL1       -0.1908
@<TRIPOS>BOND
     1    19    20    3
     2    20    13    1
     3    13    14   ar
     4    14    15   ar
     5    15    16   ar
     6    16    12    1
     7    12    11    1
     8    11    10    1
     9    10     1    1
    10     1     2    1
    11     2     3    1
    12     3     4    1
    13     4     5    1
    14     5    21    1
    15    21    22    1
    16    22    23    1
    17    23    25    1
    18    25    26    2
    19    25    27    2
    20    25    28    1
    21    28    29   ar
    22    29    30   ar
    23    30    31   ar
    24    31    32   ar
    25    32    33   ar
    26    33    34    1
    27    34    35    3
    28     5     6    1
    29     6     7    1
    30     7     8    1
    31     7     9    1
    32    16    17   ar
    33    17    18   ar
    34    18    13   ar
    35     8     1    1
    36     9     3    1
    37    33    28   ar
    38    23    24    1
@<TRIPOS>MOLECULE
*****
 35 38 0 0 0
SMALL
GASTEIGER

@<TRIPOS>ATOM
      1 N         141.3223  138.0647  164.4225 N.3     1  UNL1       -0.2653
      2 C         141.8317  138.0344  163.0120 C.3     1  UNL1        0.1036
      3 C         142.8180  139.0651  162.5485 C.3     1  UNL1        0.1470
      4 C         143.8042  140.0959  162.0849 C.3     1  UNL1        0.1035
      5 N         144.2810  141.1570  163.0319 N.3     1  UNL1       -0.2673
      6 C         143.7716  141.1873  164.4425 C.3     1  UNL1        0.1035
      7 C         142.7853  140.1565  164.9060 C.3     1  UNL1        0.1470
      8 C         141.7991  139.1257  165.3695 C.3     1  UNL1        0.1036
      9 O         143.2948  140.1262  163.4955 O.3     1  UNL1       -0.3530
     10 C         140.3361  137.0339  164.8860 C.3     1  UNL1        0.1202
     11 C         138.8879  137.3951  165.0352 C.3     1  UNL1        0.2226
     12 O         138.4496  138.8202  164.8705 O.3     1  UNL1       -0.4740
     13 C         138.2512  140.6532  160.7655 C.ar    1  UNL1        0.0686
     14 C         138.0920  139.1712  160.9337 C.ar    1  UNL1        0.0134
     15 C         138.1581  138.5602  162.3019 C.ar    1  UNL1        0.0376
     16 C         138.3835  139.4312  163.5022 C.ar    1  UNL1        0.1387
     17 C         138.5426  140.9132  163.3341 C.ar    1  UNL1        0.0376
     18 C         138.4765  141.5243  161.9658 C.ar    1  UNL1        0.0134
     19 N         138.1189  141.8752  158.0290 N.1     1  UNL1       -0.1908
     20 C         138.1851  141.2642  159.3973 C.1     1  UNL1        0.1004
     21 C         145.2672  142.1878  162.5684 C.3     1  UNL1        0.0913
     22 C         144.8294  143.6086  162.3694 C.3     1  UNL1        0.1087
     23 N         143.5058  143.9027  161.7280 N.3     1  UNL1       -0.1779
     24 H         143.3382  143.1630  161.0460 H       1  UNL1        0.1488
     25 S         142.2694  144.0024  162.5713 S.O2    1  UNL1        0.0609
     26 O         142.8560  145.1797  163.2923 O.2     1  UNL1       -0.1530
     27 O         141.6827  142.8252  161.8504 O.2     1  UNL1       -0.1530
     28 C         141.0329  144.1020  163.4147 C.ar    1  UNL1        0.1315
     29 C         141.0198  143.5222  164.7981 C.ar    1  UNL1        0.0206
     30 C         139.7834  143.6218  165.6414 C.ar    1  UNL1        0.0014
     31 C         138.5600  144.3013  165.1015 C.ar    1  UNL1        0.0008
     32 C         138.5731  144.8811  163.7181 C.ar    1  UNL1        0.0116
     33 C         139.8095  144.7815  162.8748 C.ar    1  UNL1        0.0870
     34 C         139.8225  145.3613  161.4914 C.1     1  UNL1        0.1018
     35 N         139.8355  145.9412  160.1081 N.1     1  UNL1       -0.1908
@<TRIPOS>BOND
     1    19    20    3
     2    20    13    1
     3    13    14   ar
     4    14    15   ar
     5    15    16   ar
     6    16    12    1
     7    12    11    1
     8    11    10    1
     9    10     1    1
    10     1     2    1
    11     2     3    1
    12     3     4    1
    13     4     5    1
    14     5    21    1
    15    21    22    1
    16    22    23    1
    17    23    25    1
    18    25    26    2
    19    25    27    2
    20    25    28    1
    21    28    29   ar
    22    29    30   ar
    23    30    31   ar
    24    31    32   ar
    25    32    33   ar
    26    33    34    1
    27    34    35    3
    28     5     6    1
    29     6     7    1
    30     7     8    1
    31     7     9    1
    32    16    17   ar
    33    17    18   ar
    34    18    13   ar
    35     8     1    1
    36     9     3    1
    37    33    28   ar
    38    23    24    1
