@<TRIPOS>MOLECULE
*****
 16 17 0 0 0
SMALL
GASTEIGER

@<TRIPOS>ATOM
      1 C         139.9145  139.5961  163.5374 C.3     1  UNL1        0.0312
      2 C         139.6074  139.6214  165.0055 C.ar    1  UNL1       -0.0158
      3 C         140.4624  140.4287  165.9367 C.ar    1  UNL1        0.0121
      4 C         140.1554  140.4540  167.4047 C.ar    1  UNL1        0.0779
      5 N         138.9934  139.6720  167.9415 N.ar    1  UNL1       -0.1495
      6 O         138.6864  139.6973  169.4095 O.3     1  UNL1       -0.4233
      7 C         138.1384  138.8647  167.0103 C.ar    1  UNL1        0.2916
      8 O         136.9764  138.0826  167.5471 O.2     1  UNL1       -0.2640
      9 C         138.4455  138.8394  165.5422 C.ar    1  UNL1        0.0595
     10 H         139.2205  140.2016  169.9912 H       1  UNL1        0.3259
     11 C         141.0104  141.2614  168.3360 C.3     1  UNL1        0.0418
     12 C         140.4904  142.5474  168.9066 C.3     1  UNL1        0.0060
     13 C         141.3453  143.3548  169.8378 C.3     1  UNL1        0.0004
     14 C         142.7204  142.8761  170.1984 C.3     1  UNL1        0.0000
     15 C         143.2405  141.5901  169.6278 C.3     1  UNL1        0.0004
     16 C         142.3855  140.7827  168.6965 C.3     1  UNL1        0.0060
@<TRIPOS>BOND
     1     1     2    1
     2     2     3   ar
     3     3     4   ar
     4     4    11    1
     5    11    12    1
     6    12    13    1
     7    13    14    1
     8    14    15    1
     9    15    16    1
    10     4     5   ar
    11     5     6    1
    12     5     7   ar
    13     7     8    2
    14     7     9   ar
    15     9     2   ar
    16    16    11    1
    17     6    10    1
@<TRIPOS>MOLECULE
*****
 16 17 0 0 0
SMALL
GASTEIGER

@<TRIPOS>ATOM
      1 C         137.5836  137.9768  166.9569 C.3     1  UNL1        0.0312
      2 C         138.3442  139.2197  166.6012 C.ar    1  UNL1       -0.0158
      3 C         139.2695  139.8452  167.6025 C.ar    1  UNL1        0.0121
      4 C         140.0301  141.0881  167.2467 C.ar    1  UNL1        0.0779
      5 N         139.8655  141.7056  165.8897 N.ar    1  UNL1       -0.1495
      6 O         140.6261  142.9485  165.5339 O.3     1  UNL1       -0.4233
      7 C         138.9403  141.0801  164.8884 C.ar    1  UNL1        0.2916
      8 O         138.7757  141.6975  163.5312 O.2     1  UNL1       -0.2640
      9 C         138.1797  139.8371  165.2441 C.ar    1  UNL1        0.0595
     10 H         141.2041  143.3392  166.1595 H       1  UNL1        0.3259
     11 C         140.9553  141.7136  168.2481 C.3     1  UNL1        0.0418
     12 C         140.4846  142.8638  169.0881 C.3     1  UNL1        0.0060
     13 C         141.4098  143.4893  170.0894 C.3     1  UNL1        0.0004
     14 C         142.8058  142.9646  170.2509 C.3     1  UNL1        0.0000
     15 C         143.2765  141.8145  169.4110 C.3     1  UNL1        0.0004
     16 C         142.3512  141.1890  168.4096 C.3     1  UNL1        0.0060
@<TRIPOS>BOND
     1     1     2    1
     2     2     3   ar
     3     3     4   ar
     4     4    11    1
     5    11    12    1
     6    12    13    1
     7    13    14    1
     8    14    15    1
     9    15    16    1
    10     4     5   ar
    11     5     6    1
    12     5     7   ar
    13     7     8    2
    14     7     9   ar
    15     9     2   ar
    16    16    11    1
    17     6    10    1
@<TRIPOS>MOLECULE
*****
 16 17 0 0 0
SMALL
GASTEIGER

@<TRIPOS>ATOM
      1 C         137.4154  137.2804  167.0185 C.3     1  UNL1        0.0312
      2 C         138.1740  138.0167  165.9543 C.ar    1  UNL1       -0.0158
      3 C         138.1348  139.5154  165.9062 C.ar    1  UNL1        0.0121
      4 C         138.8934  140.2517  164.8421 C.ar    1  UNL1        0.0779
      5 N         139.6911  139.4893  163.8260 N.ar    1  UNL1       -0.1495
      6 O         140.4497  140.2257  162.7619 O.3     1  UNL1       -0.4233
      7 C         139.7302  137.9907  163.8741 C.ar    1  UNL1        0.2916
      8 O         140.5279  137.2282  162.8580 O.2     1  UNL1       -0.2640
      9 C         138.9717  137.2543  164.9383 C.ar    1  UNL1        0.0595
     10 H         140.4252  141.1619  162.7318 H       1  UNL1        0.3259
     11 C         138.8542  141.7505  164.7940 C.3     1  UNL1        0.0418
     12 C         137.7400  142.4489  164.0724 C.3     1  UNL1        0.0060
     13 C         137.7008  143.9475  164.0243 C.3     1  UNL1        0.0004
     14 C         138.7759  144.7479  164.6979 C.3     1  UNL1        0.0000
     15 C         139.8901  144.0496  165.4195 C.3     1  UNL1        0.0004
     16 C         139.9293  142.5508  165.4676 C.3     1  UNL1        0.0060
@<TRIPOS>BOND
     1     1     2    1
     2     2     3   ar
     3     3     4   ar
     4     4    11    1
     5    11    12    1
     6    12    13    1
     7    13    14    1
     8    14    15    1
     9    15    16    1
    10     4     5   ar
    11     5     6    1
    12     5     7   ar
    13     7     8    2
    14     7     9   ar
    15     9     2   ar
    16    16    11    1
    17     6    10    1
@<TRIPOS>MOLECULE
*****
 16 17 0 0 0
SMALL
GASTEIGER

@<TRIPOS>ATOM
      1 C         142.5273  142.2828  168.3989 C.3     1  UNL1        0.0312
      2 C         141.3190  141.4021  168.2785 C.ar    1  UNL1       -0.0158
      3 C         140.9114  140.8673  166.9377 C.ar    1  UNL1        0.0121
      4 C         139.7032  139.9866  166.8173 C.ar    1  UNL1        0.0779
      5 N         138.9026  139.6406  168.0377 N.ar    1  UNL1       -0.1495
      6 O         137.6944  138.7598  167.9172 O.3     1  UNL1       -0.4233
      7 C         139.3103  140.1754  169.3785 C.ar    1  UNL1        0.2916
      8 O         138.5097  139.8294  170.5989 O.2     1  UNL1       -0.2640
      9 C         140.5185  141.0561  169.4989 C.ar    1  UNL1        0.0595
     10 H         137.4398  138.4258  167.0796 H       1  UNL1        0.3259
     11 C         139.2955  139.4518  165.4764 C.3     1  UNL1        0.0418
     12 C         139.7018  138.0674  165.0660 C.3     1  UNL1        0.0060
     13 C         139.2942  137.5327  163.7252 C.3     1  UNL1        0.0004
     14 C         138.4803  138.3823  162.7947 C.3     1  UNL1        0.0000
     15 C         138.0740  139.7667  163.2051 C.3     1  UNL1        0.0004
     16 C         138.4816  140.3014  164.5460 C.3     1  UNL1        0.0060
@<TRIPOS>BOND
     1     1     2    1
     2     2     3   ar
     3     3     4   ar
     4     4    11    1
     5    11    12    1
     6    12    13    1
     7    13    14    1
     8    14    15    1
     9    15    16    1
    10     4     5   ar
    11     5     6    1
    12     5     7   ar
    13     7     8    2
    14     7     9   ar
    15     9     2   ar
    16    16    11    1
    17     6    10    1
@<TRIPOS>MOLECULE
*****
 16 17 0 0 0
SMALL
GASTEIGER

@<TRIPOS>ATOM
      1 C         138.2519  144.3978  163.6612 C.3     1  UNL1        0.0312
      2 C         138.6638  143.2381  164.5188 C.ar    1  UNL1       -0.0158
      3 C         139.5953  143.4536  165.6746 C.ar    1  UNL1        0.0121
      4 C         140.0072  142.2940  166.5322 C.ar    1  UNL1        0.0779
      5 N         139.4877  140.9188  166.2341 N.ar    1  UNL1       -0.1495
      6 O         139.8996  139.7591  167.0917 O.3     1  UNL1       -0.4233
      7 C         138.5562  140.7033  165.0783 C.ar    1  UNL1        0.2916
      8 O         138.0366  139.3281  164.7801 O.2     1  UNL1       -0.2640
      9 C         138.1442  141.8629  164.2207 C.ar    1  UNL1        0.0595
     10 H         140.4815  139.8938  167.8137 H       1  UNL1        0.3259
     11 C         140.9388  142.5095  167.6880 C.3     1  UNL1        0.0418
     12 C         140.4402  143.1675  168.9404 C.3     1  UNL1        0.0060
     13 C         141.3717  143.3831  170.0962 C.3     1  UNL1        0.0004
     14 C         142.8018  142.9407  169.9997 C.3     1  UNL1        0.0000
     15 C         143.3003  142.2826  168.7473 C.3     1  UNL1        0.0004
     16 C         142.3687  142.0671  167.5914 C.3     1  UNL1        0.0060
@<TRIPOS>BOND
     1     1     2    1
     2     2     3   ar
     3     3     4   ar
     4     4    11    1
     5    11    12    1
     6    12    13    1
     7    13    14    1
     8    14    15    1
     9    15    16    1
    10     4     5   ar
    11     5     6    1
    12     5     7   ar
    13     7     8    2
    14     7     9   ar
    15     9     2   ar
    16    16    11    1
    17     6    10    1
@<TRIPOS>MOLECULE
*****
 16 17 0 0 0
SMALL
GASTEIGER

@<TRIPOS>ATOM
      1 C         139.4062  145.1122  163.2416 C.3     1  UNL1        0.0312
      2 C         140.3801  144.3461  164.0870 C.ar    1  UNL1       -0.0158
      3 C         139.9102  143.6541  165.3321 C.ar    1  UNL1        0.0121
      4 C         140.8840  142.8880  166.1774 C.ar    1  UNL1        0.0779
      5 N         142.3279  142.8138  165.7776 N.ar    1  UNL1       -0.1495
      6 O         143.3017  142.0476  166.6230 O.3     1  UNL1       -0.4233
      7 C         142.7978  143.5057  164.5325 C.ar    1  UNL1        0.2916
      8 O         144.2417  143.4316  164.1327 O.2     1  UNL1       -0.2640
      9 C         141.8239  144.2719  163.6872 C.ar    1  UNL1        0.0595
     10 H         143.0082  141.6154  167.4008 H       1  UNL1        0.3259
     11 C         140.4140  142.1960  167.4225 C.3     1  UNL1        0.0418
     12 C         139.9083  140.7856  167.3513 C.3     1  UNL1        0.0060
     13 C         139.4383  140.0936  168.5964 C.3     1  UNL1        0.0004
     14 C         139.4740  140.8120  169.9128 C.3     1  UNL1        0.0000
     15 C         139.9798  142.2224  169.9840 C.3     1  UNL1        0.0004
     16 C         140.4498  142.9144  168.7388 C.3     1  UNL1        0.0060
@<TRIPOS>BOND
     1     1     2    1
     2     2     3   ar
     3     3     4   ar
     4     4    11    1
     5    11    12    1
     6    12    13    1
     7    13    14    1
     8    14    15    1
     9    15    16    1
    10     4     5   ar
    11     5     6    1
    12     5     7   ar
    13     7     8    2
    14     7     9   ar
    15     9     2   ar
    16    16    11    1
    17     6    10    1
@<TRIPOS>MOLECULE
*****
 16 17 0 0 0
SMALL
GASTEIGER

@<TRIPOS>ATOM
      1 C         138.0988  139.4699  165.8403 C.3     1  UNL1        0.0312
      2 C         139.3621  139.8657  166.5455 C.ar    1  UNL1       -0.0158
      3 C         140.5735  140.2559  165.7517 C.ar    1  UNL1        0.0121
      4 C         141.8368  140.6518  166.4569 C.ar    1  UNL1        0.0779
      5 N         141.8887  140.6573  167.9560 N.ar    1  UNL1       -0.1495
      6 O         143.1520  141.0532  168.6612 O.3     1  UNL1       -0.4233
      7 C         140.6773  140.2671  168.7498 C.ar    1  UNL1        0.2916
      8 O         140.7292  140.2727  170.2489 O.2     1  UNL1       -0.2640
      9 C         139.4140  139.8713  168.0446 C.ar    1  UNL1        0.0595
     10 H         143.9088  141.2969  168.1653 H       1  UNL1        0.3259
     11 C         143.0482  141.0420  165.6630 C.3     1  UNL1        0.0418
     12 C         143.8684  139.9883  164.9796 C.3     1  UNL1        0.0060
     13 C         145.0798  140.3785  164.1857 C.3     1  UNL1        0.0004
     14 C         145.4710  141.8224  164.0752 C.3     1  UNL1        0.0000
     15 C         144.6508  142.8761  164.7586 C.3     1  UNL1        0.0004
     16 C         143.4394  142.4858  165.5525 C.3     1  UNL1        0.0060
@<TRIPOS>BOND
     1     1     2    1
     2     2     3   ar
     3     3     4   ar
     4     4    11    1
     5    11    12    1
     6    12    13    1
     7    13    14    1
     8    14    15    1
     9    15    16    1
    10     4     5   ar
    11     5     6    1
    12     5     7   ar
    13     7     8    2
    14     7     9   ar
    15     9     2   ar
    16    16    11    1
    17     6    10    1
@<TRIPOS>MOLECULE
*****
 16 17 0 0 0
SMALL
GASTEIGER

@<TRIPOS>ATOM
      1 C         144.9283  142.6927  164.5590 C.3     1  UNL1        0.0312
      2 C         143.4819  142.9862  164.8272 C.ar    1  UNL1       -0.0158
      3 C         142.8013  142.3778  166.0174 C.ar    1  UNL1        0.0121
      4 C         141.3550  142.6714  166.2856 C.ar    1  UNL1        0.0779
      5 N         140.5892  143.5733  165.3636 N.ar    1  UNL1       -0.1495
      6 O         139.1429  143.8668  165.6318 O.3     1  UNL1       -0.4233
      7 C         141.2698  144.1817  164.1734 C.ar    1  UNL1        0.2916
      8 O         140.5041  145.0837  163.2514 O.2     1  UNL1       -0.2640
      9 C         142.7162  143.8881  163.9052 C.ar    1  UNL1        0.0595
     10 H         138.7178  143.4868  166.3753 H       1  UNL1        0.3259
     11 C         140.6744  142.0629  167.4759 C.3     1  UNL1        0.0418
     12 C         140.5883  142.8283  168.7630 C.3     1  UNL1        0.0060
     13 C         139.9077  142.2199  169.9532 C.3     1  UNL1        0.0004
     14 C         139.3133  140.8461  169.8564 C.3     1  UNL1        0.0000
     15 C         139.3994  140.0807  168.5692 C.3     1  UNL1        0.0004
     16 C         140.0800  140.6892  167.3789 C.3     1  UNL1        0.0060
@<TRIPOS>BOND
     1     1     2    1
     2     2     3   ar
     3     3     4   ar
     4     4    11    1
     5    11    12    1
     6    12    13    1
     7    13    14    1
     8    14    15    1
     9    15    16    1
    10     4     5   ar
    11     5     6    1
    12     5     7   ar
    13     7     8    2
    14     7     9   ar
    15     9     2   ar
    16    16    11    1
    17     6    10    1
@<TRIPOS>MOLECULE
*****
 16 17 0 0 0
SMALL
GASTEIGER

@<TRIPOS>ATOM
      1 C         139.0212  144.8260  164.8787 C.3     1  UNL1        0.0312
      2 C         139.0443  143.3340  165.0319 C.ar    1  UNL1       -0.0158
      3 C         139.7913  142.7086  166.1724 C.ar    1  UNL1        0.0121
      4 C         139.8144  141.2167  166.3256 C.ar    1  UNL1        0.0779
      5 N         139.0906  140.3500  165.3382 N.ar    1  UNL1       -0.1495
      6 O         139.1138  138.8580  165.4914 O.3     1  UNL1       -0.4233
      7 C         138.3437  140.9754  164.1976 C.ar    1  UNL1        0.2916
      8 O         137.6198  140.1087  163.2101 O.2     1  UNL1       -0.2640
      9 C         138.3205  142.4674  164.0445 C.ar    1  UNL1        0.0595
     10 H         139.5804  138.4674  166.2039 H       1  UNL1        0.3259
     11 C         140.5614  140.5913  167.4663 C.3     1  UNL1        0.0418
     12 C         141.9391  140.0396  167.2479 C.3     1  UNL1        0.0060
     13 C         142.6861  139.4143  168.3884 C.3     1  UNL1        0.0004
     14 C         142.0554  139.3407  169.7475 C.3     1  UNL1        0.0000
     15 C         140.6778  139.8924  169.9659 C.3     1  UNL1        0.0004
     16 C         139.9308  140.5177  168.8252 C.3     1  UNL1        0.0060
@<TRIPOS>BOND
     1     1     2    1
     2     2     3   ar
     3     3     4   ar
     4     4    11    1
     5    11    12    1
     6    12    13    1
     7    13    14    1
     8    14    15    1
     9    15    16    1
    10     4     5   ar
    11     5     6    1
    12     5     7   ar
    13     7     8    2
    14     7     9   ar
    15     9     2   ar
    16    16    11    1
    17     6    10    1
