@<TRIPOS>MOLECULE
*****
 34 38 0 0 0
SMALL
GASTEIGER

@<TRIPOS>ATOM
      1 N         139.3628  139.5343  161.0718 N.3     1  UNL1       -0.2689
      2 C         140.3669  140.4462  161.7122 C.3     1  UNL1        0.0724
      3 C         140.3958  140.6002  163.2040 C.3     1  UNL1        0.0175
      4 C         139.4207  139.8423  164.0553 C.3     1  UNL1        0.0060
      5 C         138.4166  138.9304  163.4148 C.3     1  UNL1        0.0175
      6 C         138.3877  138.7764  161.9231 C.3     1  UNL1        0.0724
      7 C         140.4248  140.7543  164.6958 C.3     1  UNL1        0.0217
      8 C         140.4537  140.9083  166.1876 C.3     1  UNL1        0.0938
      9 N         139.4785  140.1504  167.0389 N.am    1  UNL1       -0.2748
     10 C         139.5075  140.3044  168.5307 C.2     1  UNL1        0.2668
     11 O         138.5324  139.5465  169.3820 O.2     1  UNL1       -0.2683
     12 C         138.4745  139.2385  166.3984 C.3     1  UNL1        0.0938
     13 C         138.4455  139.0844  164.9066 C.3     1  UNL1        0.0217
     14 C         140.5116  141.2163  169.1712 C.ar    1  UNL1        0.1348
     15 C         140.2057  142.6764  169.3285 C.ar    1  UNL1        0.0250
     16 C         141.2097  143.5883  169.9689 C.ar    1  UNL1        0.0174
     17 C         142.5198  143.0402  170.4522 C.ar    1  UNL1        0.0610
     18 N         143.5238  143.9521  171.0926 N.pl3   1  UNL1       -0.3558
     19 C         142.8257  141.5802  170.2949 C.ar    1  UNL1        0.1130
     20 N         141.8215  140.6682  169.6544 N.ar    1  UNL1       -0.2380
     21 H         143.3230  144.9104  171.1958 H       1  UNL1        0.1424
     22 H         144.3836  143.5924  171.4098 H       1  UNL1        0.1424
     23 C         139.3338  139.3802  159.5799 C.3     1  UNL1        0.1022
     24 C         139.4360  136.8201  153.9442 C.3     1  UNL1        0.0439
     25 C         139.3696  137.4546  155.3017 C.3     1  UNL1        0.1374
     26 C         137.9878  137.8527  154.8749 C.3     1  UNL1        0.0439
     27 C         140.7652  136.9238  155.4448 C.3     1  UNL1        0.0694
     28 C         141.2726  137.3135  156.8015 C.ar    1  UNL1        0.0150
     29 C         142.5801  137.0654  157.4935 C.ar    1  UNL1       -0.0012
     30 C         142.8055  137.5889  158.8809 C.ar    1  UNL1       -0.0004
     31 C         141.7234  138.3606  159.5765 C.ar    1  UNL1        0.0001
     32 C         140.4159  138.6087  158.8845 C.ar    1  UNL1        0.0275
     33 C         140.1905  138.0851  157.4969 C.ar    1  UNL1        0.1316
     34 O         139.0144  138.1723  156.5701 O.3     1  UNL1       -0.4828
@<TRIPOS>BOND
     1    24    25    1
     2    25    26    1
     3    25    27    1
     4    27    28    1
     5    28    29   ar
     6    29    30   ar
     7    30    31   ar
     8    31    32   ar
     9    32    23    1
    10    23     1    1
    11     1     2    1
    12     2     3    1
    13     3     4    1
    14     4     5    1
    15     5     6    1
    16     4     7    1
    17     7     8    1
    18     8     9    1
    19     9    10   am
    20    10    11    2
    21    10    14    1
    22    14    15   ar
    23    15    16   ar
    24    16    17   ar
    25    17    18    1
    26    17    19   ar
    27    19    20   ar
    28     9    12    1
    29    12    13    1
    30    32    33   ar
    31    33    34    1
    32    34    25    1
    33    33    28   ar
    34     6     1    1
    35    20    14   ar
    36    13     4    1
    37    18    21    1
    38    18    22    1
@<TRIPOS>MOLECULE
*****
 34 38 0 0 0
SMALL
GASTEIGER

@<TRIPOS>ATOM
      1 N         139.7365  138.6910  161.2805 N.3     1  UNL1       -0.2689
      2 C         140.7589  139.5974  161.8993 C.3     1  UNL1        0.0724
      3 C         140.6990  139.9045  163.3663 C.3     1  UNL1        0.0175
      4 C         139.6166  139.3052  164.2144 C.3     1  UNL1        0.0060
      5 C         138.5942  138.3988  163.5956 C.3     1  UNL1        0.0175
      6 C         138.6542  138.0917  162.1286 C.3     1  UNL1        0.0724
      7 C         140.6391  140.2117  164.8333 C.3     1  UNL1        0.0217
      8 C         140.5791  140.5188  166.3003 C.3     1  UNL1        0.0938
      9 N         139.4967  139.9195  167.1484 N.am    1  UNL1       -0.2748
     10 C         139.4368  140.2267  168.6155 C.2     1  UNL1        0.2668
     11 O         138.3545  139.6274  169.4636 O.2     1  UNL1       -0.2683
     12 C         138.4743  139.0131  166.5296 C.3     1  UNL1        0.0938
     13 C         138.5342  138.7059  165.0626 C.3     1  UNL1        0.0217
     14 C         140.4592  141.1331  169.2343 C.ar    1  UNL1        0.1348
     15 C         140.1867  142.6037  169.3485 C.ar    1  UNL1        0.0250
     16 C         141.2091  143.5101  169.9674 C.ar    1  UNL1        0.0174
     17 C         142.5041  142.9460  170.4720 C.ar    1  UNL1        0.0610
     18 N         143.5265  143.8524  171.0909 N.pl3   1  UNL1       -0.3558
     19 C         142.7767  141.4754  170.3578 C.ar    1  UNL1        0.1130
     20 N         141.7542  140.5689  169.7389 N.ar    1  UNL1       -0.2380
     21 H         143.3476  144.8176  171.1658 H       1  UNL1        0.1424
     22 H         144.3765  143.4821  171.4221 H       1  UNL1        0.1424
     23 C         139.7964  138.3838  159.8135 C.3     1  UNL1        0.1022
     24 C         144.0750  136.8251  155.6193 C.3     1  UNL1        0.0439
     25 C         143.0329  137.1594  156.6451 C.3     1  UNL1        0.1374
     26 C         142.9754  135.6735  156.8419 C.3     1  UNL1        0.0439
     27 C         143.3082  138.5755  156.2339 C.3     1  UNL1        0.0694
     28 C         142.4242  139.4743  157.0467 C.ar    1  UNL1        0.0150
     29 C         142.2613  140.9652  157.0729 C.ar    1  UNL1       -0.0012
     30 C         141.2768  141.5957  158.0127 C.ar    1  UNL1       -0.0004
     31 C         140.4551  140.7352  158.9263 C.ar    1  UNL1        0.0001
     32 C         140.6180  139.2443  158.9000 C.ar    1  UNL1        0.0275
     33 C         141.6026  138.6139  157.9601 C.ar    1  UNL1        0.1316
     34 O         141.9788  137.1832  157.7120 O.3     1  UNL1       -0.4828
@<TRIPOS>BOND
     1    24    25    1
     2    25    26    1
     3    25    27    1
     4    27    28    1
     5    28    29   ar
     6    29    30   ar
     7    30    31   ar
     8    31    32   ar
     9    32    23    1
    10    23     1    1
    11     1     2    1
    12     2     3    1
    13     3     4    1
    14     4     5    1
    15     5     6    1
    16     4     7    1
    17     7     8    1
    18     8     9    1
    19     9    10   am
    20    10    11    2
    21    10    14    1
    22    14    15   ar
    23    15    16   ar
    24    16    17   ar
    25    17    18    1
    26    17    19   ar
    27    19    20   ar
    28     9    12    1
    29    12    13    1
    30    32    33   ar
    31    33    34    1
    32    34    25    1
    33    33    28   ar
    34     6     1    1
    35    20    14   ar
    36    13     4    1
    37    18    21    1
    38    18    22    1
@<TRIPOS>MOLECULE
*****
 34 38 0 0 0
SMALL
GASTEIGER

@<TRIPOS>ATOM
      1 N         142.4967  138.6097  160.8304 N.3     1  UNL1       -0.2689
      2 C         143.2862  139.5617  161.6791 C.3     1  UNL1        0.0724
      3 C         142.8355  139.8720  163.0757 C.3     1  UNL1        0.0175
      4 C         141.5952  139.2304  163.6235 C.3     1  UNL1        0.0060
      5 C         140.8058  138.2784  162.7748 C.3     1  UNL1        0.0175
      6 C         141.2565  137.9681  161.3782 C.3     1  UNL1        0.0724
      7 C         142.3847  140.1824  164.4724 C.3     1  UNL1        0.0217
      8 C         141.9340  140.4927  165.8689 C.3     1  UNL1        0.0938
      9 N         140.6938  139.8510  166.4168 N.am    1  UNL1       -0.2748
     10 C         140.2430  140.1614  167.8134 C.2     1  UNL1        0.2668
     11 O         139.0028  139.5198  168.3613 O.2     1  UNL1       -0.2683
     12 C         139.9043  138.8991  165.5680 C.3     1  UNL1        0.0938
     13 C         140.3550  138.5887  164.1714 C.3     1  UNL1        0.0217
     14 C         141.0325  141.1134  168.6622 C.ar    1  UNL1        0.1348
     15 C         140.4671  142.4603  169.0029 C.ar    1  UNL1        0.0250
     16 C         141.2565  143.4123  169.8517 C.ar    1  UNL1        0.0174
     17 C         142.6116  143.0174  170.3597 C.ar    1  UNL1        0.0610
     18 N         143.4010  143.9693  171.2085 N.pl3   1  UNL1       -0.3558
     19 C         143.1770  141.6704  170.0190 C.ar    1  UNL1        0.1130
     20 N         142.3874  140.7184  169.1702 N.ar    1  UNL1       -0.2380
     21 H         143.0299  144.8533  171.4321 H       1  UNL1        0.1424
     22 H         144.2903  143.7101  171.5419 H       1  UNL1        0.1424
     23 C         142.9475  138.2994  159.4337 C.3     1  UNL1        0.1022
     24 C         142.3941  133.9781  155.0352 C.3     1  UNL1        0.0439
     25 C         142.5641  135.0037  156.1165 C.3     1  UNL1        0.1374
     26 C         143.7455  134.1662  156.5076 C.3     1  UNL1        0.0439
     27 C         141.3472  135.6268  155.4994 C.3     1  UNL1        0.0694
     28 C         141.0121  136.8624  156.2810 C.ar    1  UNL1        0.0150
     29 C         139.9179  137.8777  156.1331 C.ar    1  UNL1       -0.0012
     30 C         139.8335  139.0335  157.0854 C.ar    1  UNL1       -0.0004
     31 C         140.8434  139.1741  158.1856 C.ar    1  UNL1        0.0001
     32 C         141.9376  138.1588  158.3335 C.ar    1  UNL1        0.0275
     33 C         142.0220  137.0029  157.3812 C.ar    1  UNL1        0.1316
     34 O         142.9812  135.8542  157.2795 O.3     1  UNL1       -0.4828
@<TRIPOS>BOND
     1    24    25    1
     2    25    26    1
     3    25    27    1
     4    27    28    1
     5    28    29   ar
     6    29    30   ar
     7    30    31   ar
     8    31    32   ar
     9    32    23    1
    10    23     1    1
    11     1     2    1
    12     2     3    1
    13     3     4    1
    14     4     5    1
    15     5     6    1
    16     4     7    1
    17     7     8    1
    18     8     9    1
    19     9    10   am
    20    10    11    2
    21    10    14    1
    22    14    15   ar
    23    15    16   ar
    24    16    17   ar
    25    17    18    1
    26    17    19   ar
    27    19    20   ar
    28     9    12    1
    29    12    13    1
    30    32    33   ar
    31    33    34    1
    32    34    25    1
    33    33    28   ar
    34     6     1    1
    35    20    14   ar
    36    13     4    1
    37    18    21    1
    38    18    22    1
@<TRIPOS>MOLECULE
*****
 34 38 0 0 0
SMALL
GASTEIGER

@<TRIPOS>ATOM
      1 N         138.6110  139.1975  165.8140 N.3     1  UNL1       -0.2689
      2 C         138.0932  140.3835  165.0556 C.3     1  UNL1        0.0724
      3 C         138.1646  140.4052  163.5575 C.3     1  UNL1        0.0175
      4 C         138.7538  139.2408  162.8178 C.3     1  UNL1        0.0060
      5 C         139.2715  138.0548  163.5762 C.3     1  UNL1        0.0175
      6 C         139.2001  138.0332  165.0743 C.3     1  UNL1        0.0724
      7 C         138.2360  140.4268  162.0593 C.3     1  UNL1        0.0217
      8 C         138.3074  140.4485  160.5612 C.3     1  UNL1        0.0938
      9 N         138.8966  139.2841  159.8215 N.am    1  UNL1       -0.2748
     10 C         138.9680  139.3058  158.3233 C.2     1  UNL1        0.2668
     11 O         139.5572  138.1415  157.5836 O.2     1  UNL1       -0.2683
     12 C         139.4144  138.0981  160.5799 C.3     1  UNL1        0.0938
     13 C         139.3430  138.0764  162.0781 C.3     1  UNL1        0.0217
     14 C         138.4502  140.4918  157.5648 C.ar    1  UNL1        0.1348
     15 C         139.3643  141.6392  157.2518 C.ar    1  UNL1        0.0250
     16 C         138.8465  142.8252  156.4933 C.ar    1  UNL1        0.0174
     17 C         137.4146  142.8639  156.0479 C.ar    1  UNL1        0.0610
     18 N         136.8968  144.0499  155.2895 N.pl3   1  UNL1       -0.3558
     19 C         136.5006  141.7165  156.3610 C.ar    1  UNL1        0.1130
     20 N         137.0184  140.5304  157.1195 N.ar    1  UNL1       -0.2380
     21 H         137.4968  144.8029  155.0840 H       1  UNL1        0.1424
     22 H         135.9571  144.0752  154.9972 H       1  UNL1        0.1424
     23 C         138.5396  139.1758  167.3122 C.3     1  UNL1        0.1022
     24 C         143.6726  142.2580  165.7377 C.3     1  UNL1        0.0439
     25 C         142.4273  141.4941  166.0779 C.3     1  UNL1        0.1374
     26 C         142.5229  141.0144  164.6599 C.3     1  UNL1        0.0439
     27 C         142.5919  142.1336  167.4247 C.3     1  UNL1        0.0694
     28 C         141.4684  141.6646  168.3010 C.ar    1  UNL1        0.0150
     29 C         141.1166  141.9637  169.7281 C.ar    1  UNL1       -0.0012
     30 C         139.9058  141.3335  170.3500 C.ar    1  UNL1       -0.0004
     31 C         139.0467  140.4042  169.5447 C.ar    1  UNL1        0.0001
     32 C         139.3985  140.1051  168.1175 C.ar    1  UNL1        0.0275
     33 C         140.6094  140.7353  167.4957 C.ar    1  UNL1        0.1316
     34 O         141.2020  140.6299  166.1217 O.3     1  UNL1       -0.4828
@<TRIPOS>BOND
     1    24    25    1
     2    25    26    1
     3    25    27    1
     4    27    28    1
     5    28    29   ar
     6    29    30   ar
     7    30    31   ar
     8    31    32   ar
     9    32    23    1
    10    23     1    1
    11     1     2    1
    12     2     3    1
    13     3     4    1
    14     4     5    1
    15     5     6    1
    16     4     7    1
    17     7     8    1
    18     8     9    1
    19     9    10   am
    20    10    11    2
    21    10    14    1
    22    14    15   ar
    23    15    16   ar
    24    16    17   ar
    25    17    18    1
    26    17    19   ar
    27    19    20   ar
    28     9    12    1
    29    12    13    1
    30    32    33   ar
    31    33    34    1
    32    34    25    1
    33    33    28   ar
    34     6     1    1
    35    20    14   ar
    36    13     4    1
    37    18    21    1
    38    18    22    1
@<TRIPOS>MOLECULE
*****
 34 38 0 0 0
SMALL
GASTEIGER

@<TRIPOS>ATOM
      1 N         142.2634  137.7179  157.8388 N.3     1  UNL1       -0.2689
      2 C         142.6678  137.5028  159.2671 C.3     1  UNL1        0.0724
      3 C         141.8525  138.1001  160.3755 C.3     1  UNL1        0.0175
      4 C         140.6328  138.9124  160.0555 C.3     1  UNL1        0.0060
      5 C         140.2284  139.1276  158.6272 C.3     1  UNL1        0.0175
      6 C         141.0437  138.5303  157.5189 C.3     1  UNL1        0.0724
      7 C         141.0372  138.6973  161.4839 C.3     1  UNL1        0.0217
      8 C         140.2220  139.2946  162.5923 C.3     1  UNL1        0.0938
      9 N         139.0023  140.1070  162.2724 N.am    1  UNL1       -0.2748
     10 C         138.1870  140.7043  163.3809 C.2     1  UNL1        0.2668
     11 O         136.9673  141.5167  163.0609 O.2     1  UNL1       -0.2683
     12 C         138.5978  140.3221  160.8441 C.3     1  UNL1        0.0938
     13 C         139.4131  139.7248  159.7356 C.3     1  UNL1        0.0217
     14 C         138.5914  140.4892  164.8092 C.ar    1  UNL1        0.1348
     15 C         138.0508  139.3172  165.5734 C.ar    1  UNL1        0.0250
     16 C         138.4552  139.1020  167.0017 C.ar    1  UNL1        0.0174
     17 C         139.4003  140.0590  167.6659 C.ar    1  UNL1        0.0610
     18 N         139.8048  139.8439  169.0942 N.pl3   1  UNL1       -0.3558
     19 C         139.9410  141.2310  166.9017 C.ar    1  UNL1        0.1130
     20 N         139.5365  141.4461  165.4733 N.ar    1  UNL1       -0.2380
     21 H         139.4499  139.0746  169.5957 H       1  UNL1        0.1424
     22 H         140.4251  140.4719  169.5301 H       1  UNL1        0.1424
     23 C         143.0787  137.1206  156.7303 C.3     1  UNL1        0.1022
     24 C         144.4462  131.0941  157.1021 C.3     1  UNL1        0.0439
     25 C         144.1442  132.5623  157.0447 C.3     1  UNL1        0.1374
     26 C         145.1599  132.6541  158.1447 C.3     1  UNL1        0.0439
     27 C         143.1917  132.1637  155.9568 C.3     1  UNL1        0.0694
     28 C         142.5133  133.4046  155.4569 C.ar    1  UNL1        0.0150
     29 C         141.4789  133.6238  154.3930 C.ar    1  UNL1       -0.0012
     30 C         140.9777  135.0086  154.1082 C.ar    1  UNL1       -0.0004
     31 C         141.5110  136.1742  154.8873 C.ar    1  UNL1        0.0001
     32 C         142.5454  135.9550  155.9512 C.ar    1  UNL1        0.0275
     33 C         143.0466  134.5702  156.2360 C.ar    1  UNL1        0.1316
     34 O         144.0545  134.0497  157.2174 O.3     1  UNL1       -0.4828
@<TRIPOS>BOND
     1    24    25    1
     2    25    26    1
     3    25    27    1
     4    27    28    1
     5    28    29   ar
     6    29    30   ar
     7    30    31   ar
     8    31    32   ar
     9    32    23    1
    10    23     1    1
    11     1     2    1
    12     2     3    1
    13     3     4    1
    14     4     5    1
    15     5     6    1
    16     4     7    1
    17     7     8    1
    18     8     9    1
    19     9    10   am
    20    10    11    2
    21    10    14    1
    22    14    15   ar
    23    15    16   ar
    24    16    17   ar
    25    17    18    1
    26    17    19   ar
    27    19    20   ar
    28     9    12    1
    29    12    13    1
    30    32    33   ar
    31    33    34    1
    32    34    25    1
    33    33    28   ar
    34     6     1    1
    35    20    14   ar
    36    13     4    1
    37    18    21    1
    38    18    22    1
@<TRIPOS>MOLECULE
*****
 34 38 0 0 0
SMALL
GASTEIGER

@<TRIPOS>ATOM
      1 N         139.6335  139.2563  161.0384 N.3     1  UNL1       -0.2689
      2 C         140.6354  140.1602  161.6935 C.3     1  UNL1        0.0724
      3 C         140.6059  140.3604  163.1797 C.3     1  UNL1        0.0175
      4 C         139.5744  139.6567  164.0110 C.3     1  UNL1        0.0060
      5 C         138.5725  138.7528  163.3559 C.3     1  UNL1        0.0175
      6 C         138.6020  138.5526  161.8697 C.3     1  UNL1        0.0724
      7 C         140.5764  140.5606  164.6661 C.3     1  UNL1        0.0217
      8 C         140.5468  140.7608  166.1523 C.3     1  UNL1        0.0938
      9 N         139.5153  140.0572  166.9835 N.am    1  UNL1       -0.2748
     10 C         139.4858  140.2574  168.4699 C.2     1  UNL1        0.2668
     11 O         138.4544  139.5537  169.3011 O.2     1  UNL1       -0.2683
     12 C         138.5134  139.1533  166.3285 C.3     1  UNL1        0.0938
     13 C         138.5429  138.9530  164.8422 C.3     1  UNL1        0.0217
     14 C         140.4877  141.1613  169.1249 C.ar    1  UNL1        0.1348
     15 C         140.1780  142.6177  169.3064 C.ar    1  UNL1        0.0250
     16 C         141.1799  143.5215  169.9615 C.ar    1  UNL1        0.0174
     17 C         142.4917  142.9690  170.4350 C.ar    1  UNL1        0.0610
     18 N         143.4936  143.8729  171.0901 N.pl3   1  UNL1       -0.3558
     19 C         142.8014  141.5126  170.2535 C.ar    1  UNL1        0.1130
     20 N         141.7994  140.6087  169.5984 N.ar    1  UNL1       -0.2380
     21 H         143.2903  144.8288  171.2092 H       1  UNL1        0.1424
     22 H         144.3545  143.5103  171.4009 H       1  UNL1        0.1424
     23 C         139.6630  139.0561  159.5521 C.3     1  UNL1        0.1022
     24 C         137.9560  138.6499  153.6151 C.3     1  UNL1        0.0439
     25 C         138.3827  138.7056  155.0521 C.3     1  UNL1        0.1374
     26 C         138.7675  137.2730  154.8298 C.3     1  UNL1        0.0439
     27 C         137.9086  140.1265  154.9740 C.3     1  UNL1        0.0694
     28 C         138.1227  140.7610  156.3163 C.ar    1  UNL1        0.0150
     29 C         137.8438  142.1427  156.8293 C.ar    1  UNL1       -0.0012
     30 C         138.1714  142.4955  158.2500 C.ar    1  UNL1       -0.0004
     31 C         138.7778  141.4666  159.1576 C.ar    1  UNL1        0.0001
     32 C         139.0566  140.0849  158.6446 C.ar    1  UNL1        0.0275
     33 C         138.7291  139.7321  157.2238 C.ar    1  UNL1        0.1316
     34 O         138.8898  138.4618  156.4426 O.3     1  UNL1       -0.4828
@<TRIPOS>BOND
     1    24    25    1
     2    25    26    1
     3    25    27    1
     4    27    28    1
     5    28    29   ar
     6    29    30   ar
     7    30    31   ar
     8    31    32   ar
     9    32    23    1
    10    23     1    1
    11     1     2    1
    12     2     3    1
    13     3     4    1
    14     4     5    1
    15     5     6    1
    16     4     7    1
    17     7     8    1
    18     8     9    1
    19     9    10   am
    20    10    11    2
    21    10    14    1
    22    14    15   ar
    23    15    16   ar
    24    16    17   ar
    25    17    18    1
    26    17    19   ar
    27    19    20   ar
    28     9    12    1
    29    12    13    1
    30    32    33   ar
    31    33    34    1
    32    34    25    1
    33    33    28   ar
    34     6     1    1
    35    20    14   ar
    36    13     4    1
    37    18    21    1
    38    18    22    1
@<TRIPOS>MOLECULE
*****
 34 38 0 0 0
SMALL
GASTEIGER

@<TRIPOS>ATOM
      1 N         139.0343  141.6690  160.2391 N.3     1  UNL1       -0.2689
      2 C         138.6081  140.2638  159.9333 C.3     1  UNL1        0.0724
      3 C         139.5042  139.3656  159.1332 C.3     1  UNL1        0.0175
      4 C         140.8265  139.8727  158.6389 C.3     1  UNL1        0.0060
      5 C         141.2528  141.2779  158.9448 C.3     1  UNL1        0.0175
      6 C         140.3566  142.1761  159.7448 C.3     1  UNL1        0.0724
      7 C         140.4003  138.4674  158.3330 C.3     1  UNL1        0.0217
      8 C         141.2965  137.5692  157.5329 C.3     1  UNL1        0.0938
      9 N         142.6188  138.0762  157.0387 N.am    1  UNL1       -0.2748
     10 C         143.5150  137.1780  156.2386 C.2     1  UNL1        0.2668
     11 O         144.8373  137.6851  155.7443 O.2     1  UNL1       -0.2683
     12 C         143.0450  139.4815  157.3445 C.3     1  UNL1        0.0938
     13 C         142.1489  140.3798  158.1447 C.3     1  UNL1        0.0217
     14 C         143.0887  135.7727  155.9327 C.ar    1  UNL1        0.1348
     15 C         142.4668  135.4494  154.6066 C.ar    1  UNL1        0.0250
     16 C         142.0405  134.0442  154.3008 C.ar    1  UNL1        0.0174
     17 C         142.2363  132.9622  155.3211 C.ar    1  UNL1        0.0610
     18 N         141.8101  131.5569  155.0152 N.pl3   1  UNL1       -0.3558
     19 C         142.8583  133.2855  156.6472 C.ar    1  UNL1        0.1130
     20 N         143.2845  134.6908  156.9530 N.ar    1  UNL1       -0.2380
     21 H         141.4019  131.3447  154.1449 H       1  UNL1        0.1424
     22 H         141.9386  130.8468  155.6849 H       1  UNL1        0.1424
     23 C         138.1381  142.5673  161.0392 C.3     1  UNL1        0.1022
     24 C         139.2391  139.1396  166.0756 C.3     1  UNL1        0.0439
     25 C         138.9637  139.9326  164.8326 C.3     1  UNL1        0.1374
     26 C         138.7088  138.5874  164.2199 C.3     1  UNL1        0.0439
     27 C         139.2762  141.1121  165.7050 C.3     1  UNL1        0.0694
     28 C         139.1406  142.3529  164.8731 C.ar    1  UNL1        0.0150
     29 C         139.3268  143.8052  165.1991 C.ar    1  UNL1       -0.0012
     30 C         139.1168  144.8448  164.1385 C.ar    1  UNL1       -0.0004
     31 C         138.7205  144.4322  162.7518 C.ar    1  UNL1        0.0001
     32 C         138.5343  142.9799  162.4258 C.ar    1  UNL1        0.0275
     33 C         138.7444  141.9403  163.4865 C.ar    1  UNL1        0.1316
     34 O         138.6351  140.4445  163.4614 O.3     1  UNL1       -0.4828
@<TRIPOS>BOND
     1    24    25    1
     2    25    26    1
     3    25    27    1
     4    27    28    1
     5    28    29   ar
     6    29    30   ar
     7    30    31   ar
     8    31    32   ar
     9    32    23    1
    10    23     1    1
    11     1     2    1
    12     2     3    1
    13     3     4    1
    14     4     5    1
    15     5     6    1
    16     4     7    1
    17     7     8    1
    18     8     9    1
    19     9    10   am
    20    10    11    2
    21    10    14    1
    22    14    15   ar
    23    15    16   ar
    24    16    17   ar
    25    17    18    1
    26    17    19   ar
    27    19    20   ar
    28     9    12    1
    29    12    13    1
    30    32    33   ar
    31    33    34    1
    32    34    25    1
    33    33    28   ar
    34     6     1    1
    35    20    14   ar
    36    13     4    1
    37    18    21    1
    38    18    22    1
@<TRIPOS>MOLECULE
*****
 34 38 0 0 0
SMALL
GASTEIGER

@<TRIPOS>ATOM
      1 N         144.0414  142.3589  163.1333 N.3     1  UNL1       -0.2689
      2 C         143.5772  140.9434  162.9584 C.3     1  UNL1        0.0724
      3 C         143.4857  140.3484  161.5846 C.3     1  UNL1        0.0175
      4 C         143.8585  141.1690  160.3855 C.3     1  UNL1        0.0060
      5 C         144.3228  142.5845  160.5604 C.3     1  UNL1        0.0175
      6 C         144.4143  143.1795  161.9343 C.3     1  UNL1        0.0724
      7 C         143.3942  139.7534  160.2106 C.3     1  UNL1        0.0217
      8 C         143.3027  139.1584  158.8367 C.3     1  UNL1        0.0938
      9 N         143.6755  139.9790  157.6377 N.am    1  UNL1       -0.2748
     10 C         143.5840  139.3840  156.2638 C.2     1  UNL1        0.2668
     11 O         143.9569  140.2045  155.0647 O.2     1  UNL1       -0.2683
     12 C         144.1398  141.3945  157.8126 C.3     1  UNL1        0.0938
     13 C         144.2313  141.9896  159.1865 C.3     1  UNL1        0.0217
     14 C         143.1198  137.9684  156.0889 C.ar    1  UNL1        0.1348
     15 C         141.6544  137.6682  155.9764 C.ar    1  UNL1        0.0250
     16 C         141.1901  136.2526  155.8015 C.ar    1  UNL1        0.0174
     17 C         142.1912  135.1372  155.7392 C.ar    1  UNL1        0.0610
     18 N         141.7269  133.7217  155.5643 N.pl3   1  UNL1       -0.3558
     19 C         143.6565  135.4375  155.8517 C.ar    1  UNL1        0.1130
     20 N         144.1208  136.8531  156.0266 N.ar    1  UNL1       -0.2380
     21 H         140.7652  133.5247  155.4904 H       1  UNL1        0.1424
     22 H         142.3839  132.9896  155.5234 H       1  UNL1        0.1424
     23 C         144.1329  142.9539  164.5073 C.3     1  UNL1        0.1022
     24 C         138.1461  144.3459  163.7676 C.3     1  UNL1        0.0439
     25 C         139.6044  144.0225  163.9050 C.3     1  UNL1        0.1374
     26 C         139.6870  144.5218  162.4930 C.3     1  UNL1        0.0439
     27 C         139.2170  143.5907  165.2883 C.3     1  UNL1        0.0694
     28 C         140.4530  143.1048  165.9855 C.ar    1  UNL1        0.0150
     29 C         140.6789  142.5597  167.3645 C.ar    1  UNL1       -0.0012
     30 C         142.0561  142.1460  167.7912 C.ar    1  UNL1       -0.0004
     31 C         143.2075  142.2774  166.8387 C.ar    1  UNL1        0.0001
     32 C         142.9816  142.8225  165.4597 C.ar    1  UNL1        0.0275
     33 C         141.6043  143.2363  165.0331 C.ar    1  UNL1        0.1316
     34 O         141.0799  143.8034  163.7473 O.3     1  UNL1       -0.4828
@<TRIPOS>BOND
     1    24    25    1
     2    25    26    1
     3    25    27    1
     4    27    28    1
     5    28    29   ar
     6    29    30   ar
     7    30    31   ar
     8    31    32   ar
     9    32    23    1
    10    23     1    1
    11     1     2    1
    12     2     3    1
    13     3     4    1
    14     4     5    1
    15     5     6    1
    16     4     7    1
    17     7     8    1
    18     8     9    1
    19     9    10   am
    20    10    11    2
    21    10    14    1
    22    14    15   ar
    23    15    16   ar
    24    16    17   ar
    25    17    18    1
    26    17    19   ar
    27    19    20   ar
    28     9    12    1
    29    12    13    1
    30    32    33   ar
    31    33    34    1
    32    34    25    1
    33    33    28   ar
    34     6     1    1
    35    20    14   ar
    36    13     4    1
    37    18    21    1
    38    18    22    1
@<TRIPOS>MOLECULE
*****
 34 38 0 0 0
SMALL
GASTEIGER

@<TRIPOS>ATOM
      1 N         140.2052  138.8387  160.3451 N.3     1  UNL1       -0.2689
      2 C         139.4631  139.7792  161.2476 C.3     1  UNL1        0.0724
      3 C         139.8572  139.9024  162.6897 C.3     1  UNL1        0.0175
      4 C         140.9935  139.0852  163.2291 C.3     1  UNL1        0.0060
      5 C         141.7356  138.1447  162.3266 C.3     1  UNL1        0.0175
      6 C         141.3415  138.0214  160.8845 C.3     1  UNL1        0.0724
      7 C         140.2513  140.0257  164.1318 C.3     1  UNL1        0.0217
      8 C         140.6454  140.1489  165.5738 C.3     1  UNL1        0.0938
      9 N         141.7817  139.3317  166.1132 N.am    1  UNL1       -0.2748
     10 C         142.1758  139.4549  167.5553 C.2     1  UNL1        0.2668
     11 O         143.3120  138.6377  168.0948 O.2     1  UNL1       -0.2683
     12 C         142.5238  138.3912  165.2107 C.3     1  UNL1        0.0938
     13 C         142.1297  138.2679  163.7686 C.3     1  UNL1        0.0217
     14 C         141.4336  140.3954  168.4579 C.ar    1  UNL1        0.1348
     15 C         141.9176  141.8042  168.6343 C.ar    1  UNL1        0.0250
     16 C         141.1755  142.7447  169.5369 C.ar    1  UNL1        0.0174
     17 C         139.9493  142.2764  170.2630 C.ar    1  UNL1        0.0610
     18 N         139.2071  143.2169  171.1656 N.pl3   1  UNL1       -0.3558
     19 C         139.4653  140.8677  170.0866 C.ar    1  UNL1        0.1130
     20 N         140.2075  139.9272  169.1840 N.ar    1  UNL1       -0.2380
     21 H         139.5248  144.1415  171.2814 H       1  UNL1        0.1424
     22 H         138.4024  142.9096  171.6422 H       1  UNL1        0.1424
     23 C         139.8111  138.7154  158.9030 C.3     1  UNL1        0.1022
     24 C         144.2279  136.0661  155.4679 C.3     1  UNL1        0.0439
     25 C         143.1510  136.6688  156.3206 C.3     1  UNL1        0.1374
     26 C         143.0547  135.2882  156.8991 C.3     1  UNL1        0.0439
     27 C         143.4725  137.9234  155.5639 C.3     1  UNL1        0.0694
     28 C         142.5741  139.0129  156.0697 C.ar    1  UNL1        0.0150
     29 C         142.4411  140.4592  155.6948 C.ar    1  UNL1       -0.0012
     30 C         141.4314  141.3242  156.3892 C.ar    1  UNL1       -0.0004
     31 C         140.5547  140.7429  157.4586 C.ar    1  UNL1        0.0001
     32 C         140.6877  139.2967  157.8336 C.ar    1  UNL1        0.0275
     33 C         141.6975  138.4316  157.1391 C.ar    1  UNL1        0.1316
     34 O         142.0540  136.9829  157.2942 O.3     1  UNL1       -0.4828
@<TRIPOS>BOND
     1    24    25    1
     2    25    26    1
     3    25    27    1
     4    27    28    1
     5    28    29   ar
     6    29    30   ar
     7    30    31   ar
     8    31    32   ar
     9    32    23    1
    10    23     1    1
    11     1     2    1
    12     2     3    1
    13     3     4    1
    14     4     5    1
    15     5     6    1
    16     4     7    1
    17     7     8    1
    18     8     9    1
    19     9    10   am
    20    10    11    2
    21    10    14    1
    22    14    15   ar
    23    15    16   ar
    24    16    17   ar
    25    17    18    1
    26    17    19   ar
    27    19    20   ar
    28     9    12    1
    29    12    13    1
    30    32    33   ar
    31    33    34    1
    32    34    25    1
    33    33    28   ar
    34     6     1    1
    35    20    14   ar
    36    13     4    1
    37    18    21    1
    38    18    22    1
