@<TRIPOS>MOLECULE
*****
 41 45 0 0 0
SMALL
GASTEIGER

@<TRIPOS>ATOM
      1 C         142.9763  139.4400  159.5930 C.3     1  UNL1        0.0758
      2 C         143.6514  138.5465  160.5908 C.3     1  UNL1        0.0370
      3 C         142.8426  137.8625  161.6529 C.3     1  UNL1        0.0741
      4 N         141.3587  138.0721  161.7171 N.3     1  UNL1       -0.2688
      5 C         140.6836  138.9656  160.7192 C.3     1  UNL1        0.0741
      6 C         141.4924  139.6496  159.6572 C.3     1  UNL1        0.0370
      7 O         143.3592  138.1291  156.9218 O.2     1  UNL1       -0.2526
      8 C         143.9765  139.4686  157.1953 C.2     1  UNL1        0.3039
      9 N         143.7851  140.1240  158.5308 N.am    1  UNL1       -0.2903
     10 N         144.7853  140.1526  156.1332 N.am    1  UNL1       -0.2641
     11 C         144.9767  139.4972  154.7976 C.3     1  UNL1        0.0974
     12 C         145.7855  140.1812  153.7356 C.3     1  UNL1        0.0488
     13 C         146.4028  141.5206  154.0091 C.3     1  UNL1        0.0957
     14 O         146.8643  141.3043  152.5984 O.3     1  UNL1       -0.3863
     15 C         146.2114  142.1761  155.3446 C.3     1  UNL1        0.0488
     16 C         145.4026  141.4921  156.4067 C.3     1  UNL1        0.0974
     17 H         144.1902  141.0032  158.7103 H       1  UNL1        0.1509
     18 H         146.5320  140.4517  152.2766 H       1  UNL1        0.2102
     19 C         147.1804  142.7849  153.7926 C.3     1  UNL1        0.0533
     20 C         148.6797  142.7598  153.8336 C.ar    1  UNL1       -0.0198
     21 C         149.3889  141.8115  154.7543 C.ar    1  UNL1       -0.0042
     22 C         150.8882  141.7863  154.7953 C.ar    1  UNL1       -0.0003
     23 C         151.6781  142.7095  153.9156 C.ar    1  UNL1       -0.0000
     24 C         150.9688  143.6577  152.9949 C.ar    1  UNL1       -0.0003
     25 C         149.4696  143.6829  152.9539 C.ar    1  UNL1       -0.0042
     26 C         140.5499  137.3881  162.7792 C.3     1  UNL1        0.1007
     27 C         140.2703  138.0878  164.0762 C.ar    1  UNL1        0.0129
     28 C         138.9871  138.0294  164.8508 C.ar    1  UNL1        0.0176
     29 C         139.1486  138.8743  166.0796 C.ar    1  UNL1        0.0799
     30 N         140.5317  139.4549  166.0645 N.ar    1  UNL1       -0.3038
     31 C         141.2249  138.9688  164.8264 C.ar    1  UNL1        0.0772
     32 C         141.1184  140.3622  167.1050 C.ar    1  UNL1        0.0640
     33 C         140.4505  141.6664  167.4255 C.ar    1  UNL1        0.0175
     34 C         141.0373  142.5737  168.4659 C.ar    1  UNL1        0.0053
     35 C         142.2919  142.1768  169.1858 C.ar    1  UNL1        0.0715
     36 C         142.9599  140.8726  168.8652 C.ar    1  UNL1        0.0053
     37 C         142.3731  139.9653  167.8248 C.ar    1  UNL1        0.0175
     38 C         142.8786  143.0842  170.2262 C.3     1  UNL1        0.4186
     39 F         143.4654  143.9914  171.2666 F       1  UNL1       -0.1659
     40 F         141.6341  143.9210  170.1982 F       1  UNL1       -0.1659
     41 F         144.1232  142.2473  170.2542 F       1  UNL1       -0.1659
@<TRIPOS>BOND
     1     7     8    2
     2     8     9   am
     3     9     1    1
     4     1     2    1
     5     2     3    1
     6     3     4    1
     7     4    26    1
     8    26    27    1
     9    27    28   ar
    10    28    29   ar
    11    29    30   ar
    12    30    32    1
    13    32    33   ar
    14    33    34   ar
    15    34    35   ar
    16    35    38    1
    17    38    39    1
    18    38    40    1
    19    38    41    1
    20    35    36   ar
    21    36    37   ar
    22    30    31   ar
    23     4     5    1
    24     5     6    1
    25     8    10   am
    26    10    11    1
    27    11    12    1
    28    12    13    1
    29    13    14    1
    30    13    19    1
    31    19    20    1
    32    20    21   ar
    33    21    22   ar
    34    22    23   ar
    35    23    24   ar
    36    24    25   ar
    37    13    15    1
    38    15    16    1
    39     6     1    1
    40    16    10    1
    41    31    27   ar
    42    25    20   ar
    43    37    32   ar
    44     9    17    1
    45    14    18    1
@<TRIPOS>MOLECULE
*****
 41 45 0 0 0
SMALL
GASTEIGER

@<TRIPOS>ATOM
      1 C         138.7614  139.8548  159.5423 C.3     1  UNL1        0.0758
      2 C         138.8976  141.3426  159.4088 C.3     1  UNL1        0.0370
      3 C         138.4115  142.2417  160.5067 C.3     1  UNL1        0.0741
      4 N         137.7893  141.6529  161.7380 N.3     1  UNL1       -0.2688
      5 C         137.6532  140.1651  161.8715 C.3     1  UNL1        0.0741
      6 C         138.1392  139.2661  160.7736 C.3     1  UNL1        0.0370
      7 O         141.6814  139.2037  159.3187 O.2     1  UNL1       -0.2526
      8 C         140.7074  138.6301  158.3326 C.2     1  UNL1        0.3039
      9 N         139.2475  138.9556  158.4444 N.am    1  UNL1       -0.2903
     10 N         141.1935  137.7310  157.2347 N.am    1  UNL1       -0.2641
     11 C         142.6534  137.4054  157.1229 C.3     1  UNL1        0.0974
     12 C         143.1394  136.5063  156.0250 C.3     1  UNL1        0.0488
     13 C         142.1654  135.9327  155.0389 C.3     1  UNL1        0.0957
     14 O         143.4410  135.3360  154.5224 O.3     1  UNL1       -0.3863
     15 C         140.7055  136.2583  155.1507 C.3     1  UNL1        0.0488
     16 C         140.2195  137.1574  156.2486 C.3     1  UNL1        0.0974
     17 H         138.6082  138.5792  157.7971 H       1  UNL1        0.1509
     18 H         144.1818  135.6267  155.0771 H       1  UNL1        0.2102
     19 C         141.6346  135.1519  153.8734 C.3     1  UNL1        0.0533
     20 C         141.6624  133.6524  153.9000 C.ar    1  UNL1       -0.0198
     21 C         142.0002  132.8864  152.6554 C.ar    1  UNL1       -0.0042
     22 C         142.0280  131.3869  152.6819 C.ar    1  UNL1       -0.0003
     23 C         141.7180  130.6534  153.9532 C.ar    1  UNL1       -0.0000
     24 C         141.3802  131.4194  155.1978 C.ar    1  UNL1       -0.0003
     25 C         141.3524  132.9189  155.1712 C.ar    1  UNL1       -0.0042
     26 C         137.3033  142.5521  162.8360 C.3     1  UNL1        0.1007
     27 C         138.1762  142.8229  164.0253 C.ar    1  UNL1        0.0129
     28 C         138.5251  144.1749  164.5733 C.ar    1  UNL1        0.0176
     29 C         139.4180  143.9769  165.7622 C.ar    1  UNL1        0.0799
     30 N         139.6210  142.5024  165.9490 N.ar    1  UNL1       -0.3038
     31 C         138.8535  141.7893  164.8756 C.ar    1  UNL1        0.0772
     32 C         140.4465  141.8549  167.0210 C.ar    1  UNL1        0.0640
     33 C         141.7510  142.4679  167.4361 C.ar    1  UNL1        0.0175
     34 C         142.5765  141.8203  168.5082 C.ar    1  UNL1        0.0053
     35 C         142.0975  140.5599  169.1651 C.ar    1  UNL1        0.0715
     36 C         140.7929  139.9468  168.7500 C.ar    1  UNL1        0.0053
     37 C         139.9674  140.5944  167.6780 C.ar    1  UNL1        0.0175
     38 C         142.9229  139.9124  170.2371 C.3     1  UNL1        0.4186
     39 F         143.7484  139.2648  171.3091 F       1  UNL1       -0.1659
     40 F         143.8451  141.0954  170.2416 F       1  UNL1       -0.1659
     41 F         142.0008  138.7292  170.2326 F       1  UNL1       -0.1659
@<TRIPOS>BOND
     1     7     8    2
     2     8     9   am
     3     9     1    1
     4     1     2    1
     5     2     3    1
     6     3     4    1
     7     4    26    1
     8    26    27    1
     9    27    28   ar
    10    28    29   ar
    11    29    30   ar
    12    30    32    1
    13    32    33   ar
    14    33    34   ar
    15    34    35   ar
    16    35    38    1
    17    38    39    1
    18    38    40    1
    19    38    41    1
    20    35    36   ar
    21    36    37   ar
    22    30    31   ar
    23     4     5    1
    24     5     6    1
    25     8    10   am
    26    10    11    1
    27    11    12    1
    28    12    13    1
    29    13    14    1
    30    13    19    1
    31    19    20    1
    32    20    21   ar
    33    21    22   ar
    34    22    23   ar
    35    23    24   ar
    36    24    25   ar
    37    13    15    1
    38    15    16    1
    39     6     1    1
    40    16    10    1
    41    31    27   ar
    42    25    20   ar
    43    37    32   ar
    44     9    17    1
    45    14    18    1
@<TRIPOS>MOLECULE
*****
 41 45 0 0 0
SMALL
GASTEIGER

@<TRIPOS>ATOM
      1 C         141.2014  139.2107  159.6164 C.3     1  UNL1        0.0758
      2 C         140.0224  138.7688  158.8011 C.3     1  UNL1        0.0370
      3 C         140.2350  138.1232  157.4640 C.3     1  UNL1        0.0741
      4 N         141.6264  137.9194  156.9422 N.3     1  UNL1       -0.2688
      5 C         142.8054  138.3613  157.7575 C.3     1  UNL1        0.0741
      6 C         142.5929  139.0070  159.0946 C.3     1  UNL1        0.0370
      7 O         140.3829  137.5450  161.9735 O.2     1  UNL1       -0.2526
      8 C         140.5797  139.0235  162.1321 C.2     1  UNL1        0.3039
      9 N         140.9889  139.8564  160.9536 N.am    1  UNL1       -0.2903
     10 N         140.3672  139.6692  163.4693 N.am    1  UNL1       -0.2641
     11 C         139.9580  138.8364  164.6478 C.3     1  UNL1        0.0974
     12 C         139.7455  139.4821  165.9849 C.3     1  UNL1        0.0488
     13 C         139.9423  140.9606  166.1435 C.3     1  UNL1        0.0957
     14 O         139.5546  140.5974  167.5463 O.3     1  UNL1       -0.3863
     15 C         140.3515  141.7935  164.9650 C.3     1  UNL1        0.0488
     16 C         140.5639  141.1478  163.6279 C.3     1  UNL1        0.0974
     17 H         141.1180  140.8268  161.0578 H       1  UNL1        0.1509
     18 H         139.3909  139.6428  167.5996 H       1  UNL1        0.2102
     19 C         140.0044  142.3130  166.7894 C.3     1  UNL1        0.0533
     20 C         140.9449  142.5559  167.9324 C.ar    1  UNL1       -0.0198
     21 C         140.4673  143.2813  169.1554 C.ar    1  UNL1       -0.0042
     22 C         141.4079  143.5242  170.2984 C.ar    1  UNL1       -0.0003
     23 C         142.8259  143.0418  170.2183 C.ar    1  UNL1       -0.0000
     24 C         143.3034  142.3164  168.9953 C.ar    1  UNL1       -0.0003
     25 C         142.3629  142.0735  167.8523 C.ar    1  UNL1       -0.0042
     26 C         141.8389  137.2737  155.6050 C.3     1  UNL1        0.1007
     27 C         141.8947  135.7789  155.4944 C.ar    1  UNL1        0.0129
     28 C         141.1409  134.9393  154.5060 C.ar    1  UNL1        0.0176
     29 C         141.4943  133.5027  154.7534 C.ar    1  UNL1        0.0799
     30 N         142.4665  133.4544  155.8947 N.ar    1  UNL1       -0.3038
     31 C         142.7140  134.8612  156.3526 C.ar    1  UNL1        0.0772
     32 C         143.0831  132.2166  156.4760 C.ar    1  UNL1        0.0640
     33 C         142.5267  130.8676  156.1289 C.ar    1  UNL1        0.0175
     34 C         143.1432  129.6299  156.7102 C.ar    1  UNL1        0.0053
     35 C         144.3161  129.7412  157.6385 C.ar    1  UNL1        0.0715
     36 C         144.8725  131.0902  157.9856 C.ar    1  UNL1        0.0053
     37 C         144.2560  132.3279  157.4044 C.ar    1  UNL1        0.0175
     38 C         144.9326  128.5034  158.2198 C.3     1  UNL1        0.4186
     39 F         145.5492  127.2656  158.8010 F       1  UNL1       -0.1659
     40 F         144.6045  128.9885  159.6007 F       1  UNL1       -0.1659
     41 F         145.2607  128.0183  156.8387 F       1  UNL1       -0.1659
@<TRIPOS>BOND
     1     7     8    2
     2     8     9   am
     3     9     1    1
     4     1     2    1
     5     2     3    1
     6     3     4    1
     7     4    26    1
     8    26    27    1
     9    27    28   ar
    10    28    29   ar
    11    29    30   ar
    12    30    32    1
    13    32    33   ar
    14    33    34   ar
    15    34    35   ar
    16    35    38    1
    17    38    39    1
    18    38    40    1
    19    38    41    1
    20    35    36   ar
    21    36    37   ar
    22    30    31   ar
    23     4     5    1
    24     5     6    1
    25     8    10   am
    26    10    11    1
    27    11    12    1
    28    12    13    1
    29    13    14    1
    30    13    19    1
    31    19    20    1
    32    20    21   ar
    33    21    22   ar
    34    22    23   ar
    35    23    24   ar
    36    24    25   ar
    37    13    15    1
    38    15    16    1
    39     6     1    1
    40    16    10    1
    41    31    27   ar
    42    25    20   ar
    43    37    32   ar
    44     9    17    1
    45    14    18    1
@<TRIPOS>MOLECULE
*****
 41 45 0 0 0
SMALL
GASTEIGER

@<TRIPOS>ATOM
      1 C         139.5333  140.9762  160.3410 C.3     1  UNL1        0.0758
      2 C         138.9468  142.2740  159.8703 C.3     1  UNL1        0.0370
      3 C         138.5871  142.4542  158.4253 C.3     1  UNL1        0.0741
      4 N         138.8139  141.3366  157.4510 N.3     1  UNL1       -0.2688
      5 C         139.4004  140.0387  157.9216 C.3     1  UNL1        0.0741
      6 C         139.7601  139.8585  159.3666 C.3     1  UNL1        0.0370
      7 O         137.4469  140.0928  162.3073 O.2     1  UNL1       -0.2526
      8 C         138.8498  140.3543  162.7692 C.2     1  UNL1        0.3039
      9 N         139.8930  140.7960  161.7861 N.am    1  UNL1       -0.2903
     10 N         139.2096  140.1740  164.2143 N.am    1  UNL1       -0.2641
     11 C         138.1664  139.7323  165.1974 C.3     1  UNL1        0.0974
     12 C         138.5261  139.5521  166.6424 C.3     1  UNL1        0.0488
     13 C         139.9291  139.8136  167.1042 C.3     1  UNL1        0.0957
     14 O         139.2968  139.4146  168.4046 O.3     1  UNL1       -0.3863
     15 C         140.9723  140.2553  166.1211 C.3     1  UNL1        0.0488
     16 C         140.6125  140.4355  164.6761 C.3     1  UNL1        0.0974
     17 H         140.8138  140.9676  162.0892 H       1  UNL1        0.1509
     18 H         138.3600  139.2096  168.2592 H       1  UNL1        0.2102
     19 C         141.1124  139.9365  168.0178 C.3     1  UNL1        0.0533
     20 C         141.3484  141.2113  168.7722 C.ar    1  UNL1       -0.0198
     21 C         140.2782  142.2610  168.8244 C.ar    1  UNL1       -0.0042
     22 C         140.5142  143.5358  169.5788 C.ar    1  UNL1       -0.0003
     23 C         141.8204  143.7609  170.2811 C.ar    1  UNL1       -0.0000
     24 C         142.8906  142.7111  170.2289 C.ar    1  UNL1       -0.0003
     25 C         142.6546  141.4363  169.4745 C.ar    1  UNL1       -0.0042
     26 C         138.4542  141.5168  156.0059 C.3     1  UNL1        0.1007
     27 C         137.0192  141.4429  155.5753 C.ar    1  UNL1        0.0129
     28 C         136.4370  142.0596  154.3381 C.ar    1  UNL1        0.0176
     29 C         134.9725  141.7372  154.3046 C.ar    1  UNL1        0.0799
     30 N         134.6495  140.9212  155.5211 N.ar    1  UNL1       -0.3038
     31 C         135.9144  140.7393  156.3064 C.ar    1  UNL1        0.0772
     32 C         133.2987  140.3817  155.8878 C.ar    1  UNL1        0.0640
     33 C         133.1717  138.9975  156.4514 C.ar    1  UNL1        0.0175
     34 C         131.8209  138.4581  156.8181 C.ar    1  UNL1        0.0053
     35 C         130.5973  139.3029  156.6212 C.ar    1  UNL1        0.0715
     36 C         130.7243  140.6872  156.0575 C.ar    1  UNL1        0.0053
     37 C         132.0750  141.2266  155.6908 C.ar    1  UNL1        0.0175
     38 C         129.2465  138.7635  156.9879 C.3     1  UNL1        0.4186
     39 F         127.8958  138.2240  157.3546 F       1  UNL1       -0.1659
     40 F         128.6732  140.1475  156.9121 F       1  UNL1       -0.1659
     41 F         129.8198  137.3794  157.0636 F       1  UNL1       -0.1659
@<TRIPOS>BOND
     1     7     8    2
     2     8     9   am
     3     9     1    1
     4     1     2    1
     5     2     3    1
     6     3     4    1
     7     4    26    1
     8    26    27    1
     9    27    28   ar
    10    28    29   ar
    11    29    30   ar
    12    30    32    1
    13    32    33   ar
    14    33    34   ar
    15    34    35   ar
    16    35    38    1
    17    38    39    1
    18    38    40    1
    19    38    41    1
    20    35    36   ar
    21    36    37   ar
    22    30    31   ar
    23     4     5    1
    24     5     6    1
    25     8    10   am
    26    10    11    1
    27    11    12    1
    28    12    13    1
    29    13    14    1
    30    13    19    1
    31    19    20    1
    32    20    21   ar
    33    21    22   ar
    34    22    23   ar
    35    23    24   ar
    36    24    25   ar
    37    13    15    1
    38    15    16    1
    39     6     1    1
    40    16    10    1
    41    31    27   ar
    42    25    20   ar
    43    37    32   ar
    44     9    17    1
    45    14    18    1
@<TRIPOS>MOLECULE
*****
 41 45 0 0 0
SMALL
GASTEIGER

@<TRIPOS>ATOM
      1 C         141.4151  139.1448  161.3762 C.3     1  UNL1        0.0758
      2 C         142.7006  138.4241  161.0971 C.3     1  UNL1        0.0370
      3 C         143.0849  138.0957  159.6848 C.3     1  UNL1        0.0741
      4 N         142.1837  138.4881  158.5517 N.3     1  UNL1       -0.2688
      5 C         140.8982  139.2089  158.8309 C.3     1  UNL1        0.0741
      6 C         140.5139  139.5372  160.2431 C.3     1  UNL1        0.0370
      7 O         139.3065  137.5298  162.7711 O.2     1  UNL1       -0.2526
      8 C         139.9764  138.6658  163.4859 C.2     1  UNL1        0.3039
      9 N         141.0307  139.4732  162.7885 N.am    1  UNL1       -0.2903
     10 N         139.5920  138.9942  164.8982 N.am    1  UNL1       -0.2641
     11 C         138.5378  138.1867  165.5956 C.3     1  UNL1        0.0974
     12 C         138.1534  138.5151  167.0078 C.3     1  UNL1        0.0488
     13 C         138.8233  139.6510  167.7226 C.3     1  UNL1        0.0957
     14 O         137.8890  139.1813  168.7980 O.3     1  UNL1       -0.3863
     15 C         139.8776  140.4585  167.0252 C.3     1  UNL1        0.0488
     16 C         140.2619  140.1301  165.6130 C.3     1  UNL1        0.0974
     17 H         141.4703  140.2188  163.2576 H       1  UNL1        0.1509
     18 H         137.3733  138.4273  168.4716 H       1  UNL1        0.2102
     19 C         139.1687  140.6238  168.8109 C.3     1  UNL1        0.0533
     20 C         140.6016  140.8355  169.2007 C.ar    1  UNL1       -0.0198
     21 C         141.3906  139.7086  169.7987 C.ar    1  UNL1       -0.0042
     22 C         142.8235  139.9203  170.1885 C.ar    1  UNL1       -0.0003
     23 C         143.4674  141.2591  169.9803 C.ar    1  UNL1       -0.0000
     24 C         142.6784  142.3859  169.3824 C.ar    1  UNL1       -0.0003
     25 C         141.2455  142.1742  168.9925 C.ar    1  UNL1       -0.0042
     26 C         142.5681  138.1597  157.1394 C.3     1  UNL1        0.1007
     27 C         142.2796  136.7978  156.5810 C.ar    1  UNL1        0.0129
     28 C         141.1378  136.4395  155.6766 C.ar    1  UNL1        0.0176
     29 C         141.2347  134.9753  155.3655 C.ar    1  UNL1        0.0799
     30 N         142.4365  134.4287  156.0777 N.ar    1  UNL1       -0.3038
     31 C         143.0822  135.5550  156.8289 C.ar    1  UNL1        0.0772
     32 C         142.9093  133.0056  156.0445 C.ar    1  UNL1        0.0640
     33 C         144.3529  132.6887  156.3008 C.ar    1  UNL1        0.0175
     34 C         144.8257  131.2656  156.2675 C.ar    1  UNL1        0.0053
     35 C         143.8551  130.1594  155.9781 C.ar    1  UNL1        0.0715
     36 C         142.4115  130.4761  155.7218 C.ar    1  UNL1        0.0053
     37 C         141.9386  131.8992  155.7550 C.ar    1  UNL1        0.0175
     38 C         144.3280  128.7363  155.9449 C.3     1  UNL1        0.4186
     39 F         144.8008  127.3131  155.9117 F       1  UNL1       -0.1659
     40 F         145.5548  129.1614  155.1938 F       1  UNL1       -0.1659
     41 F         143.1012  128.3110  156.6960 F       1  UNL1       -0.1659
@<TRIPOS>BOND
     1     7     8    2
     2     8     9   am
     3     9     1    1
     4     1     2    1
     5     2     3    1
     6     3     4    1
     7     4    26    1
     8    26    27    1
     9    27    28   ar
    10    28    29   ar
    11    29    30   ar
    12    30    32    1
    13    32    33   ar
    14    33    34   ar
    15    34    35   ar
    16    35    38    1
    17    38    39    1
    18    38    40    1
    19    38    41    1
    20    35    36   ar
    21    36    37   ar
    22    30    31   ar
    23     4     5    1
    24     5     6    1
    25     8    10   am
    26    10    11    1
    27    11    12    1
    28    12    13    1
    29    13    14    1
    30    13    19    1
    31    19    20    1
    32    20    21   ar
    33    21    22   ar
    34    22    23   ar
    35    23    24   ar
    36    24    25   ar
    37    13    15    1
    38    15    16    1
    39     6     1    1
    40    16    10    1
    41    31    27   ar
    42    25    20   ar
    43    37    32   ar
    44     9    17    1
    45    14    18    1
@<TRIPOS>MOLECULE
*****
 41 45 0 0 0
SMALL
GASTEIGER

@<TRIPOS>ATOM
      1 C         139.9867  139.5708  159.3282 C.3     1  UNL1        0.0758
      2 C         138.8342  139.1836  160.2068 C.3     1  UNL1        0.0370
      3 C         138.1780  140.2119  161.0796 C.3     1  UNL1        0.0741
      4 N         138.6741  141.6274  161.0738 N.3     1  UNL1       -0.2688
      5 C         139.8265  142.0147  160.1953 C.3     1  UNL1        0.0741
      6 C         140.4828  140.9864  159.3225 C.3     1  UNL1        0.0370
      7 O         138.6765  138.7205  156.7669 O.2     1  UNL1       -0.2526
      8 C         139.9879  138.1174  157.1747 C.2     1  UNL1        0.3039
      9 N         140.6430  138.5425  158.4554 N.am    1  UNL1       -0.2903
     10 N         140.6442  137.0890  156.3019 N.am    1  UNL1       -0.2641
     11 C         139.9892  136.6639  155.0212 C.3     1  UNL1        0.0974
     12 C         140.6455  135.6356  154.1484 C.3     1  UNL1        0.0488
     13 C         141.9569  135.0325  154.5563 C.3     1  UNL1        0.0957
     14 O         141.7299  134.3108  153.2610 O.3     1  UNL1       -0.3863
     15 C         142.6120  135.4576  155.8369 C.3     1  UNL1        0.0488
     16 C         141.9557  136.4858  156.7097 C.3     1  UNL1        0.0974
     17 H         141.5037  138.1466  158.7231 H       1  UNL1        0.1509
     18 H         140.8935  134.6063  152.8686 H       1  UNL1        0.2102
     19 C         143.1895  134.1786  154.5142 C.3     1  UNL1        0.0533
     20 C         143.1941  132.8348  155.1806 C.ar    1  UNL1       -0.0198
     21 C         141.9755  131.9623  155.1178 C.ar    1  UNL1       -0.0042
     22 C         141.9802  130.6184  155.7841 C.ar    1  UNL1       -0.0003
     23 C         143.2034  130.1471  156.5133 C.ar    1  UNL1       -0.0000
     24 C         144.4219  131.0196  156.5761 C.ar    1  UNL1       -0.0003
     25 C         144.4172  132.3634  155.9097 C.ar    1  UNL1       -0.0042
     26 C         138.0178  142.6558  161.9467 C.3     1  UNL1        0.1007
     27 C         138.5385  142.9073  163.3307 C.ar    1  UNL1        0.0129
     28 C         138.3609  144.1680  164.1239 C.ar    1  UNL1        0.0176
     29 C         139.0408  143.9822  165.4480 C.ar    1  UNL1        0.0799
     30 N         139.6386  142.6067  165.4732 N.ar    1  UNL1       -0.3038
     31 C         139.3281  141.9424  164.1646 C.ar    1  UNL1        0.0772
     32 C         140.4112  142.0017  166.6077 C.ar    1  UNL1        0.0640
     33 C         141.0004  140.6297  166.4664 C.ar    1  UNL1        0.0175
     34 C         141.7730  140.0247  167.6009 C.ar    1  UNL1        0.0053
     35 C         141.9564  140.7918  168.8766 C.ar    1  UNL1        0.0715
     36 C         141.3672  142.1640  169.0180 C.ar    1  UNL1        0.0053
     37 C         140.5946  142.7690  167.8835 C.ar    1  UNL1        0.0175
     38 C         142.7290  140.1869  170.0111 C.3     1  UNL1        0.4186
     39 F         143.5016  139.5819  171.1456 F       1  UNL1       -0.1659
     40 F         143.5784  141.4207  170.0906 F       1  UNL1       -0.1659
     41 F         141.8796  138.9530  169.9317 F       1  UNL1       -0.1659
@<TRIPOS>BOND
     1     7     8    2
     2     8     9   am
     3     9     1    1
     4     1     2    1
     5     2     3    1
     6     3     4    1
     7     4    26    1
     8    26    27    1
     9    27    28   ar
    10    28    29   ar
    11    29    30   ar
    12    30    32    1
    13    32    33   ar
    14    33    34   ar
    15    34    35   ar
    16    35    38    1
    17    38    39    1
    18    38    40    1
    19    38    41    1
    20    35    36   ar
    21    36    37   ar
    22    30    31   ar
    23     4     5    1
    24     5     6    1
    25     8    10   am
    26    10    11    1
    27    11    12    1
    28    12    13    1
    29    13    14    1
    30    13    19    1
    31    19    20    1
    32    20    21   ar
    33    21    22   ar
    34    22    23   ar
    35    23    24   ar
    36    24    25   ar
    37    13    15    1
    38    15    16    1
    39     6     1    1
    40    16    10    1
    41    31    27   ar
    42    25    20   ar
    43    37    32   ar
    44     9    17    1
    45    14    18    1
@<TRIPOS>MOLECULE
*****
 41 45 0 0 0
SMALL
GASTEIGER

@<TRIPOS>ATOM
      1 C         142.5350  138.9991  159.1912 C.3     1  UNL1        0.0758
      2 C         141.2042  139.6909  159.2053 C.3     1  UNL1        0.0370
      3 C         141.0646  141.0350  159.8564 C.3     1  UNL1        0.0741
      4 N         142.2558  141.6872  160.4933 N.3     1  UNL1       -0.2688
      5 C         143.5866  140.9954  160.4792 C.3     1  UNL1        0.0741
      6 C         143.7262  139.6513  159.8281 C.3     1  UNL1        0.0370
      7 O         142.2599  138.7380  156.2152 O.2     1  UNL1       -0.2526
      8 C         142.5372  137.5244  157.0521 C.2     1  UNL1        0.3039
      9 N         142.6747  137.6550  158.5401 N.am    1  UNL1       -0.2903
     10 N         142.6769  136.1803  156.4010 N.am    1  UNL1       -0.2641
     11 C         142.5393  136.0497  154.9131 C.3     1  UNL1        0.0974
     12 C         142.6790  134.7056  154.2621 C.3     1  UNL1        0.0488
     13 C         142.9563  133.4921  155.0990 C.3     1  UNL1        0.0957
     14 O         142.9093  132.8644  153.7375 O.3     1  UNL1       -0.3863
     15 C         143.0938  133.6226  156.5869 C.3     1  UNL1        0.0488
     16 C         142.9541  134.9667  157.2380 C.3     1  UNL1        0.0974
     17 H         142.8567  136.8585  159.0893 H       1  UNL1        0.1509
     18 H         142.7326  133.5479  153.0723 H       1  UNL1        0.2102
     19 C         143.2172  132.0605  155.4630 C.3     1  UNL1        0.0533
     20 C         142.1372  131.0339  155.2908 C.ar    1  UNL1       -0.0198
     21 C         140.7565  131.4585  154.8864 C.ar    1  UNL1       -0.0042
     22 C         139.6765  130.4319  154.7142 C.ar    1  UNL1       -0.0003
     23 C         139.9772  128.9807  154.9465 C.ar    1  UNL1       -0.0000
     24 C         141.3578  128.5563  155.3509 C.ar    1  UNL1       -0.0003
     25 C         142.4378  129.5829  155.5231 C.ar    1  UNL1       -0.0042
     26 C         142.1161  143.0314  161.1444 C.3     1  UNL1        0.1007
     27 C         141.4023  143.1581  162.4576 C.ar    1  UNL1        0.0129
     28 C         140.4916  144.2795  162.8614 C.ar    1  UNL1        0.0176
     29 C         140.0004  144.0001  164.2509 C.ar    1  UNL1        0.0799
     30 N         140.6076  142.7061  164.7058 N.ar    1  UNL1       -0.3038
     31 C         141.4740  142.1857  163.5975 C.ar    1  UNL1        0.0772
     32 C         140.3870  142.0480  166.0356 C.ar    1  UNL1        0.0640
     33 C         139.8676  140.6423  166.0998 C.ar    1  UNL1        0.0175
     34 C         139.6471  139.9842  167.4296 C.ar    1  UNL1        0.0053
     35 C         139.9458  140.7319  168.6951 C.ar    1  UNL1        0.0715
     36 C         140.4652  142.1376  168.6309 C.ar    1  UNL1        0.0053
     37 C         140.6858  142.7957  167.3012 C.ar    1  UNL1        0.0175
     38 C         139.7253  140.0738  170.0248 C.3     1  UNL1        0.4186
     39 F         139.5048  139.4157  171.3546 F       1  UNL1       -0.1659
     40 F         138.3872  140.7428  170.1340 F       1  UNL1       -0.1659
     41 F         141.0634  139.4048  169.9158 F       1  UNL1       -0.1659
@<TRIPOS>BOND
     1     7     8    2
     2     8     9   am
     3     9     1    1
     4     1     2    1
     5     2     3    1
     6     3     4    1
     7     4    26    1
     8    26    27    1
     9    27    28   ar
    10    28    29   ar
    11    29    30   ar
    12    30    32    1
    13    32    33   ar
    14    33    34   ar
    15    34    35   ar
    16    35    38    1
    17    38    39    1
    18    38    40    1
    19    38    41    1
    20    35    36   ar
    21    36    37   ar
    22    30    31   ar
    23     4     5    1
    24     5     6    1
    25     8    10   am
    26    10    11    1
    27    11    12    1
    28    12    13    1
    29    13    14    1
    30    13    19    1
    31    19    20    1
    32    20    21   ar
    33    21    22   ar
    34    22    23   ar
    35    23    24   ar
    36    24    25   ar
    37    13    15    1
    38    15    16    1
    39     6     1    1
    40    16    10    1
    41    31    27   ar
    42    25    20   ar
    43    37    32   ar
    44     9    17    1
    45    14    18    1
@<TRIPOS>MOLECULE
*****
 41 45 0 0 0
SMALL
GASTEIGER

@<TRIPOS>ATOM
      1 C         142.5565  139.5545  159.4877 C.3     1  UNL1        0.0758
      2 C         143.1780  140.3701  158.3929 C.3     1  UNL1        0.0370
      3 C         143.5157  139.7291  157.0796 C.3     1  UNL1        0.0741
      4 N         143.2320  138.2725  156.8610 N.3     1  UNL1       -0.2688
      5 C         142.6105  137.4569  157.9557 C.3     1  UNL1        0.0741
      6 C         142.2728  138.0979  159.2691 C.3     1  UNL1        0.0370
      7 O         144.6215  139.7047  161.6587 O.2     1  UNL1       -0.2526
      8 C         143.2512  140.2706  161.8866 C.2     1  UNL1        0.3039
      9 N         142.2187  140.1955  160.8011 N.am    1  UNL1       -0.2903
     10 N         142.9134  140.9116  163.2000 N.am    1  UNL1       -0.2641
     11 C         143.9459  140.9867  164.2855 C.3     1  UNL1        0.0974
     12 C         143.6080  141.6277  165.5988 C.3     1  UNL1        0.0488
     13 C         142.2377  142.1936  165.8267 C.3     1  UNL1        0.0957
     14 O         142.8707  142.5025  167.1511 O.3     1  UNL1       -0.3863
     15 C         141.2052  142.1185  164.7413 C.3     1  UNL1        0.0488
     16 C         141.5430  141.4775  163.4279 C.3     1  UNL1        0.0974
     17 H         141.3193  140.5669  160.9507 H       1  UNL1        0.1509
     18 H         143.7874  142.1855  167.1531 H       1  UNL1        0.2102
     19 C         141.0872  142.8668  166.5146 C.3     1  UNL1        0.0533
     20 C         140.4914  142.2581  167.7493 C.ar    1  UNL1       -0.0198
     21 C         139.9708  140.8517  167.7158 C.ar    1  UNL1       -0.0042
     22 C         139.3749  140.2430  168.9505 C.ar    1  UNL1       -0.0003
     23 C         139.2996  141.0407  170.2186 C.ar    1  UNL1       -0.0000
     24 C         139.8202  142.4470  170.2520 C.ar    1  UNL1       -0.0003
     25 C         140.4161  143.0557  169.0174 C.ar    1  UNL1       -0.0042
     26 C         143.5698  137.6314  155.5475 C.3     1  UNL1        0.1007
     27 C         143.3663  136.1575  155.3580 C.ar    1  UNL1        0.0129
     28 C         142.6637  135.5056  154.2041 C.ar    1  UNL1        0.0176
     29 C         142.6929  134.0218  154.4220 C.ar    1  UNL1        0.0799
     30 N         143.4135  133.7566  155.7106 N.ar    1  UNL1       -0.3038
     31 C         143.8297  135.0765  156.2890 C.ar    1  UNL1        0.0772
     32 C         143.6725  132.4083  156.3146 C.ar    1  UNL1        0.0640
     33 C         142.8595  131.2242  155.8824 C.ar    1  UNL1        0.0175
     34 C         143.1185  129.8758  156.4865 C.ar    1  UNL1        0.0053
     35 C         144.1904  129.7116  157.5227 C.ar    1  UNL1        0.0715
     36 C         145.0034  130.8957  157.9550 C.ar    1  UNL1        0.0053
     37 C         144.7444  132.2440  157.3510 C.ar    1  UNL1        0.0175
     38 C         144.4493  128.3632  158.1268 C.3     1  UNL1        0.4186
     39 F         144.7083  127.0149  158.7309 F       1  UNL1       -0.1659
     40 F         143.4252  127.7574  157.2134 F       1  UNL1       -0.1659
     41 F         145.4735  128.9691  159.0401 F       1  UNL1       -0.1659
@<TRIPOS>BOND
     1     7     8    2
     2     8     9   am
     3     9     1    1
     4     1     2    1
     5     2     3    1
     6     3     4    1
     7     4    26    1
     8    26    27    1
     9    27    28   ar
    10    28    29   ar
    11    29    30   ar
    12    30    32    1
    13    32    33   ar
    14    33    34   ar
    15    34    35   ar
    16    35    38    1
    17    38    39    1
    18    38    40    1
    19    38    41    1
    20    35    36   ar
    21    36    37   ar
    22    30    31   ar
    23     4     5    1
    24     5     6    1
    25     8    10   am
    26    10    11    1
    27    11    12    1
    28    12    13    1
    29    13    14    1
    30    13    19    1
    31    19    20    1
    32    20    21   ar
    33    21    22   ar
    34    22    23   ar
    35    23    24   ar
    36    24    25   ar
    37    13    15    1
    38    15    16    1
    39     6     1    1
    40    16    10    1
    41    31    27   ar
    42    25    20   ar
    43    37    32   ar
    44     9    17    1
    45    14    18    1
@<TRIPOS>MOLECULE
*****
 41 45 0 0 0
SMALL
GASTEIGER

@<TRIPOS>ATOM
      1 C         139.5144  139.9849  158.0063 C.3     1  UNL1        0.0758
      2 C         139.7100  139.1333  156.7871 C.3     1  UNL1        0.0370
      3 C         138.6580  139.1007  155.7184 C.3     1  UNL1        0.0741
      4 N         137.4104  139.9197  155.8689 N.3     1  UNL1       -0.2688
      5 C         137.2148  140.7713  157.0881 C.3     1  UNL1        0.0741
      6 C         138.2668  140.8039  158.1568 C.3     1  UNL1        0.0370
      7 O         141.5555  142.1834  158.0353 O.2     1  UNL1       -0.2526
      8 C         141.5870  141.1168  159.0895 C.2     1  UNL1        0.3039
      9 N         140.5665  140.0176  159.0750 N.am    1  UNL1       -0.2903
     10 N         142.6391  141.1495  160.1583 N.am    1  UNL1       -0.2641
     11 C         143.6595  142.2487  160.1728 C.3     1  UNL1        0.0974
     12 C         144.7115  142.2813  161.2416 C.3     1  UNL1        0.0488
     13 C         144.7430  141.2147  162.2958 C.3     1  UNL1        0.0957
     14 O         145.9159  142.0435  162.7286 O.3     1  UNL1       -0.3863
     15 C         143.7225  140.1155  162.2812 C.3     1  UNL1        0.0488
     16 C         142.6705  140.0829  161.2125 C.3     1  UNL1        0.0974
     17 H         140.5872  139.3175  159.7670 H       1  UNL1        0.1509
     18 H         146.0232  142.7933  162.1227 H       1  UNL1        0.2102
     19 C         145.1819  140.4360  163.5003 C.3     1  UNL1        0.0533
     20 C         144.2903  140.3496  164.7034 C.ar    1  UNL1       -0.0198
     21 C         144.0128  139.0187  165.3373 C.ar    1  UNL1       -0.0042
     22 C         143.1212  138.9324  166.5404 C.ar    1  UNL1       -0.0003
     23 C         142.5070  140.1769  167.1097 C.ar    1  UNL1       -0.0000
     24 C         142.7845  141.5077  166.4758 C.ar    1  UNL1       -0.0003
     25 C         143.6761  141.5941  165.2727 C.ar    1  UNL1       -0.0042
     26 C         136.3583  139.8870  154.8001 C.3     1  UNL1        0.1007
     27 C         134.9416  140.2524  155.1309 C.ar    1  UNL1        0.0129
     28 C         134.2338  141.5068  154.7120 C.ar    1  UNL1        0.0176
     29 C         132.8387  141.4571  155.2608 C.ar    1  UNL1        0.0799
     30 N         132.6843  140.1720  156.0189 N.ar    1  UNL1       -0.3038
     31 C         133.9839  139.4274  155.9386 C.ar    1  UNL1        0.0772
     32 C         131.4473  139.7122  156.7321 C.ar    1  UNL1        0.0640
     33 C         130.1124  140.2906  156.3671 C.ar    1  UNL1        0.0175
     34 C         128.8755  139.8308  157.0803 C.ar    1  UNL1        0.0053
     35 C         128.9735  138.7927  158.1584 C.ar    1  UNL1        0.0715
     36 C         130.3085  138.2142  158.5234 C.ar    1  UNL1        0.0053
     37 C         131.5454  138.6740  157.8103 C.ar    1  UNL1        0.0175
     38 C         127.7366  138.3329  158.8715 C.3     1  UNL1        0.4186
     39 F         126.4996  137.8732  159.5847 F       1  UNL1       -0.1659
     40 F         128.4435  137.0772  159.2881 F       1  UNL1       -0.1659
     41 F         127.0296  139.5886  158.4550 F       1  UNL1       -0.1659
@<TRIPOS>BOND
     1     7     8    2
     2     8     9   am
     3     9     1    1
     4     1     2    1
     5     2     3    1
     6     3     4    1
     7     4    26    1
     8    26    27    1
     9    27    28   ar
    10    28    29   ar
    11    29    30   ar
    12    30    32    1
    13    32    33   ar
    14    33    34   ar
    15    34    35   ar
    16    35    38    1
    17    38    39    1
    18    38    40    1
    19    38    41    1
    20    35    36   ar
    21    36    37   ar
    22    30    31   ar
    23     4     5    1
    24     5     6    1
    25     8    10   am
    26    10    11    1
    27    11    12    1
    28    12    13    1
    29    13    14    1
    30    13    19    1
    31    19    20    1
    32    20    21   ar
    33    21    22   ar
    34    22    23   ar
    35    23    24   ar
    36    24    25   ar
    37    13    15    1
    38    15    16    1
    39     6     1    1
    40    16    10    1
    41    31    27   ar
    42    25    20   ar
    43    37    32   ar
    44     9    17    1
    45    14    18    1
