@<TRIPOS>MOLECULE
*****
 31 36 0 0 0
SMALL
GASTEIGER

@<TRIPOS>ATOM
      1 O         139.4124  144.1781  164.3063 O.2     1  UNL1       -0.2700
      2 C         140.1174  143.2822  163.3315 C.2     1  UNL1        0.2485
      3 N         140.5997  141.9307  163.7683 N.am    1  UNL1       -0.3024
      4 H         141.0625  141.3427  163.1285 H       1  UNL1        0.1497
      5 C         140.3769  141.4751  165.1800 C.3     1  UNL1        0.0719
      6 C         139.3222  140.4516  165.4801 C.3     1  UNL1        0.0203
      7 C         140.1541  141.0194  166.5916 C.3     1  UNL1        0.0018
      8 C         139.9313  140.5637  168.0032 C.3     1  UNL1        0.0024
      9 C         140.9861  141.5872  167.7031 C.3     1  UNL1        0.0018
     10 C         141.2089  142.0428  166.2915 C.3     1  UNL1        0.0203
     11 C         139.1339  139.8912  167.6603 C.3     1  UNL1        0.0285
     12 C         138.0446  138.9725  167.1918 C.3     1  UNL1        0.0884
     13 O         136.9899  137.9491  167.4919 O.3     1  UNL1       -0.3867
     14 C         138.8766  139.5403  168.3033 C.3     1  UNL1        0.0269
     15 C         138.2674  139.4282  165.7802 C.3     1  UNL1        0.0285
     16 H         136.9769  137.7680  168.4448 H       1  UNL1        0.2102
     17 C         140.3402  143.7379  161.9198 C.ar    1  UNL1        0.0861
     18 C         139.2682  143.5394  160.8896 C.ar    1  UNL1        0.1075
     19 N         139.4910  143.9951  159.4780 N.ar    1  UNL1       -0.2120
     20 C         140.7859  144.6492  159.0966 C.ar    1  UNL1        0.2200
     21 N         141.8579  144.8476  160.1267 N.ar    1  UNL1       -0.2179
     22 C         141.6351  144.3919  161.5383 C.ar    1  UNL1        0.0673
     23 N         141.0087  145.1048  157.6849 N.pl3   1  UNL1       -0.2731
     24 C         140.0749  146.0996  157.0617 C.3     1  UNL1        0.1257
     25 C         140.2977  146.5552  155.6500 C.3     1  UNL1        0.1637
     26 O         141.4543  146.0160  154.8616 O.3     1  UNL1       -0.3501
     27 C         142.3880  145.0212  155.4848 C.3     1  UNL1        0.1637
     28 C         142.1652  144.5656  156.8964 C.3     1  UNL1        0.1257
     29 C         142.7072  144.5903  162.5686 C.3     1  UNL1        0.0406
     30 C         144.1165  144.3752  163.0349 C.3     1  UNL1        0.0063
     31 C         143.1546  145.1492  163.8867 C.3     1  UNL1        0.0063
@<TRIPOS>BOND
     1     1     2    2
     2     2     3   am
     3     5     3    1
     4     5     6    1
     5     6     7    1
     6     7     8    1
     7     8     9    1
     8     9    10    1
     9    10    11    1
    10    11    12    1
    11    12    13    1
    12    12    14    1
    13    12    15    1
    14     2    17    1
    15    17    18   ar
    16    18    19   ar
    17    19    20   ar
    18    20    23    1
    19    23    24    1
    20    24    25    1
    21    25    26    1
    22    26    27    1
    23    27    28    1
    24    20    21   ar
    25    21    22   ar
    26    22    29    1
    27    29    30    1
    28    30    31    1
    29    10     5    1
    30    22    17   ar
    31    31    29    1
    32    15     6    1
    33    28    23    1
    34    14     8    1
    35     3     4    1
    36    13    16    1
@<TRIPOS>MOLECULE
*****
 31 36 0 0 0
SMALL
GASTEIGER

@<TRIPOS>ATOM
      1 O         139.8092  140.2806  164.4763 O.2     1  UNL1       -0.2700
      2 C         140.5848  141.5195  164.1392 C.2     1  UNL1        0.2485
      3 N         141.5389  142.1024  165.1391 N.am    1  UNL1       -0.3024
      4 H         142.0479  142.9155  164.9178 H       1  UNL1        0.1497
      5 C         141.7174  141.4464  166.4763 C.3     1  UNL1        0.0719
      6 C         141.0958  142.0541  167.6987 C.3     1  UNL1        0.0203
      7 C         141.8959  140.7905  167.8134 C.3     1  UNL1        0.0018
      8 C         142.0744  140.1346  169.1505 C.3     1  UNL1        0.0024
      9 C         142.6959  139.5269  167.9281 C.3     1  UNL1        0.0018
     10 C         142.5174  140.1828  166.5909 C.3     1  UNL1        0.0203
     11 C         141.4735  140.9255  169.6187 C.3     1  UNL1        0.0285
     12 C         140.6527  142.0059  170.2582 C.3     1  UNL1        0.0884
     13 O         140.0311  142.6136  171.4807 O.3     1  UNL1       -0.3867
     14 C         141.4528  140.7423  170.3729 C.3     1  UNL1        0.0269
     15 C         140.4742  142.6618  168.9211 C.3     1  UNL1        0.0285
     16 H         140.2416  142.0690  172.2552 H       1  UNL1        0.2102
     17 C         140.4063  142.1754  162.8020 C.ar    1  UNL1        0.0861
     18 C         141.0826  141.6053  161.5906 C.ar    1  UNL1        0.1075
     19 N         140.9041  142.2612  160.2536 N.ar    1  UNL1       -0.2120
     20 C         140.0492  143.4873  160.1279 C.ar    1  UNL1        0.2200
     21 N         139.3729  144.0575  161.3392 N.ar    1  UNL1       -0.2179
     22 C         139.5514  143.4015  162.6763 C.ar    1  UNL1        0.0673
     23 N         139.8707  144.1433  158.7907 N.pl3   1  UNL1       -0.2731
     24 C         139.2378  143.3850  157.6618 C.3     1  UNL1        0.1257
     25 C         139.0593  144.0409  156.3248 C.3     1  UNL1        0.1637
     26 O         139.5137  145.4552  156.1166 O.3     1  UNL1       -0.3501
     27 C         140.1466  146.2135  157.2454 C.3     1  UNL1        0.1637
     28 C         140.3251  145.5576  158.5825 C.3     1  UNL1        0.1257
     29 C         138.8750  143.9717  163.8877 C.3     1  UNL1        0.0406
     30 C         138.9242  144.8170  165.1259 C.3     1  UNL1        0.0063
     31 C         137.6544  144.1139  164.7478 C.3     1  UNL1        0.0063
@<TRIPOS>BOND
     1     1     2    2
     2     2     3   am
     3     5     3    1
     4     5     6    1
     5     6     7    1
     6     7     8    1
     7     8     9    1
     8     9    10    1
     9    10    11    1
    10    11    12    1
    11    12    13    1
    12    12    14    1
    13    12    15    1
    14     2    17    1
    15    17    18   ar
    16    18    19   ar
    17    19    20   ar
    18    20    23    1
    19    23    24    1
    20    24    25    1
    21    25    26    1
    22    26    27    1
    23    27    28    1
    24    20    21   ar
    25    21    22   ar
    26    22    29    1
    27    29    30    1
    28    30    31    1
    29    10     5    1
    30    22    17   ar
    31    31    29    1
    32    15     6    1
    33    28    23    1
    34    14     8    1
    35     3     4    1
    36    13    16    1
@<TRIPOS>MOLECULE
*****
 31 36 0 0 0
SMALL
GASTEIGER

@<TRIPOS>ATOM
      1 O         139.6601  143.9832  165.4608 O.2     1  UNL1       -0.2700
      2 C         140.2585  143.0634  164.4381 C.2     1  UNL1        0.2485
      3 N         140.9460  141.8034  164.8736 N.am    1  UNL1       -0.3024
      4 H         141.3387  141.1997  164.2023 H       1  UNL1        0.1497
      5 C         141.0352  141.4632  166.3318 C.3     1  UNL1        0.0719
      6 C         142.1867  141.9671  167.1504 C.3     1  UNL1        0.0203
      7 C         141.1245  141.1230  167.7899 C.3     1  UNL1        0.0018
      8 C         141.2137  140.7828  169.2481 C.3     1  UNL1        0.0024
      9 C         140.0623  140.2788  168.4295 C.3     1  UNL1        0.0018
     10 C         139.9730  140.6190  166.9713 C.3     1  UNL1        0.0203
     11 C         142.1493  141.3526  169.3238 C.3     1  UNL1        0.0285
     12 C         143.4274  142.1309  169.4272 C.3     1  UNL1        0.0884
     13 O         144.5789  142.6349  170.2458 O.3     1  UNL1       -0.3867
     14 C         142.3652  141.2867  170.0667 C.3     1  UNL1        0.0269
     15 C         143.3381  142.4711  167.9690 C.3     1  UNL1        0.0285
     16 H         144.4846  142.3266  171.1607 H       1  UNL1        0.2102
     17 C         140.1693  143.4037  162.9799 C.ar    1  UNL1        0.0861
     18 C         138.9039  143.1308  162.2221 C.ar    1  UNL1        0.1075
     19 N         138.8147  143.4710  160.7640 N.ar    1  UNL1       -0.2120
     20 C         139.9909  144.0841  160.0636 C.ar    1  UNL1        0.2200
     21 N         141.2563  144.3570  160.8214 N.ar    1  UNL1       -0.2179
     22 C         141.3455  144.0168  162.2795 C.ar    1  UNL1        0.0673
     23 N         139.9017  144.4244  158.6054 N.pl3   1  UNL1       -0.2731
     24 C         139.3441  143.4257  157.6350 C.3     1  UNL1        0.1257
     25 C         139.2549  143.7660  156.1768 C.3     1  UNL1        0.1637
     26 O         139.7233  145.1049  155.6891 O.3     1  UNL1       -0.3501
     27 C         140.2810  146.1036  156.6595 C.3     1  UNL1        0.1637
     28 C         140.3702  145.7633  158.1176 C.3     1  UNL1        0.1257
     29 C         142.6109  144.2897  163.0373 C.3     1  UNL1        0.0406
     30 C         143.4361  145.1925  163.9057 C.3     1  UNL1        0.0063
     31 C         143.9775  143.8595  163.4815 C.3     1  UNL1        0.0063
@<TRIPOS>BOND
     1     1     2    2
     2     2     3   am
     3     5     3    1
     4     5     6    1
     5     6     7    1
     6     7     8    1
     7     8     9    1
     8     9    10    1
     9    10    11    1
    10    11    12    1
    11    12    13    1
    12    12    14    1
    13    12    15    1
    14     2    17    1
    15    17    18   ar
    16    18    19   ar
    17    19    20   ar
    18    20    23    1
    19    23    24    1
    20    24    25    1
    21    25    26    1
    22    26    27    1
    23    27    28    1
    24    20    21   ar
    25    21    22   ar
    26    22    29    1
    27    29    30    1
    28    30    31    1
    29    10     5    1
    30    22    17   ar
    31    31    29    1
    32    15     6    1
    33    28    23    1
    34    14     8    1
    35     3     4    1
    36    13    16    1
@<TRIPOS>MOLECULE
*****
 31 36 0 0 0
SMALL
GASTEIGER

@<TRIPOS>ATOM
      1 O         139.9311  143.7283  166.3332 O.2     1  UNL1       -0.2700
      2 C         140.6297  142.8457  165.3418 C.2     1  UNL1        0.2485
      3 N         141.6378  141.8399  165.8128 N.am    1  UNL1       -0.3024
      4 H         142.0963  141.2606  165.1621 H       1  UNL1        0.1497
      5 C         141.9474  141.7166  167.2754 C.3     1  UNL1        0.0719
      6 C         141.0405  140.9244  168.1698 C.3     1  UNL1        0.0203
      7 C         142.2570  141.5933  168.7379 C.3     1  UNL1        0.0018
      8 C         142.5665  141.4700  170.2004 C.3     1  UNL1        0.0024
      9 C         143.4734  142.2622  169.3060 C.3     1  UNL1        0.0018
     10 C         143.1639  142.3855  167.8435 C.3     1  UNL1        0.0203
     11 C         141.6691  140.8525  170.3383 C.3     1  UNL1        0.0285
     12 C         140.4431  140.0089  170.5267 C.3     1  UNL1        0.0884
     13 O         139.5362  139.2167  171.4211 O.3     1  UNL1       -0.3867
     14 C         141.6596  140.6778  171.0948 C.3     1  UNL1        0.0269
     15 C         140.1336  140.1322  169.0642 C.3     1  UNL1        0.0285
     16 H         139.8779  139.2380  172.3286 H       1  UNL1        0.2102
     17 C         140.3201  142.9690  163.8792 C.ar    1  UNL1        0.0861
     18 C         139.0207  142.4476  163.3411 C.ar    1  UNL1        0.1075
     19 N         138.7111  142.5708  161.8786 N.ar    1  UNL1       -0.2120
     20 C         139.7010  143.2155  160.9542 C.ar    1  UNL1        0.2200
     21 N         141.0004  143.7370  161.4923 N.ar    1  UNL1       -0.2179
     22 C         141.3099  143.6137  162.9548 C.ar    1  UNL1        0.0673
     23 N         139.3914  143.3388  159.4916 N.pl3   1  UNL1       -0.2731
     24 C         140.1197  144.3471  158.6532 C.3     1  UNL1        0.1257
     25 C         139.8101  144.4703  157.1908 C.3     1  UNL1        0.1637
     26 O         138.7722  143.5853  156.5667 O.3     1  UNL1       -0.3501
     27 C         138.0439  142.5770  157.4051 C.3     1  UNL1        0.1637
     28 C         138.3535  142.4538  158.8676 C.3     1  UNL1        0.1257
     29 C         142.6094  144.1351  163.4930 C.3     1  UNL1        0.0406
     30 C         143.5052  145.2894  163.8325 C.3     1  UNL1        0.0063
     31 C         143.9643  143.8840  164.0855 C.3     1  UNL1        0.0063
@<TRIPOS>BOND
     1     1     2    2
     2     2     3   am
     3     5     3    1
     4     5     6    1
     5     6     7    1
     6     7     8    1
     7     8     9    1
     8     9    10    1
     9    10    11    1
    10    11    12    1
    11    12    13    1
    12    12    14    1
    13    12    15    1
    14     2    17    1
    15    17    18   ar
    16    18    19   ar
    17    19    20   ar
    18    20    23    1
    19    23    24    1
    20    24    25    1
    21    25    26    1
    22    26    27    1
    23    27    28    1
    24    20    21   ar
    25    21    22   ar
    26    22    29    1
    27    29    30    1
    28    30    31    1
    29    10     5    1
    30    22    17   ar
    31    31    29    1
    32    15     6    1
    33    28    23    1
    34    14     8    1
    35     3     4    1
    36    13    16    1
@<TRIPOS>MOLECULE
*****
 31 36 0 0 0
SMALL
GASTEIGER

@<TRIPOS>ATOM
      1 O         142.8550  138.8457  166.2296 O.2     1  UNL1       -0.2700
      2 C         142.0842  139.6626  165.2353 C.2     1  UNL1        0.2485
      3 N         141.0706  140.6612  165.7101 N.am    1  UNL1       -0.3024
      4 H         140.5647  141.1974  165.0575 H       1  UNL1        0.1497
      5 C         140.8278  140.8430  167.1791 C.3     1  UNL1        0.0719
      6 C         141.7421  141.7144  167.9882 C.3     1  UNL1        0.0203
      7 C         140.5850  141.0247  168.6481 C.3     1  UNL1        0.0018
      8 C         140.3423  141.2065  170.1171 C.3     1  UNL1        0.0024
      9 C         139.4280  140.3350  169.3080 C.3     1  UNL1        0.0018
     10 C         139.6707  140.1533  167.8390 C.3     1  UNL1        0.0203
     11 C         141.2177  141.8663  170.1802 C.3     1  UNL1        0.0285
     12 C         142.4136  142.7676  170.2663 C.3     1  UNL1        0.0884
     13 O         143.3279  143.6391  171.0754 O.3     1  UNL1       -0.3867
     14 C         141.2566  142.0779  170.9262 C.3     1  UNL1        0.0269
     15 C         142.6564  142.5859  168.7973 C.3     1  UNL1        0.0285
     16 H         143.0322  143.6481  171.9992 H       1  UNL1        0.2102
     17 C         142.3270  139.4809  163.7662 C.ar    1  UNL1        0.0861
     18 C         141.5830  138.4215  163.0085 C.ar    1  UNL1        0.1075
     19 N         141.8258  138.2398  161.5395 N.ar    1  UNL1       -0.2120
     20 C         142.8127  139.1175  160.8283 C.ar    1  UNL1        0.2200
     21 N         143.5566  140.1769  161.5860 N.ar    1  UNL1       -0.2179
     22 C         143.3138  140.3585  163.0550 C.ar    1  UNL1        0.0673
     23 N         143.0555  138.9358  159.3592 N.pl3   1  UNL1       -0.2731
     24 C         142.6790  137.6469  158.6906 C.3     1  UNL1        0.1257
     25 C         142.9218  137.4652  157.2216 C.3     1  UNL1        0.1637
     26 O         143.5411  138.5724  156.4212 O.3     1  UNL1       -0.3501
     27 C         143.9176  139.8612  157.0898 C.3     1  UNL1        0.1637
     28 C         143.6748  140.0429  158.5588 C.3     1  UNL1        0.1257
     29 C         144.0578  141.4179  163.8128 C.3     1  UNL1        0.0406
     30 C         145.3533  142.0273  164.2605 C.3     1  UNL1        0.0063
     31 C         144.0509  142.6435  164.6776 C.3     1  UNL1        0.0063
@<TRIPOS>BOND
     1     1     2    2
     2     2     3   am
     3     5     3    1
     4     5     6    1
     5     6     7    1
     6     7     8    1
     7     8     9    1
     8     9    10    1
     9    10    11    1
    10    11    12    1
    11    12    13    1
    12    12    14    1
    13    12    15    1
    14     2    17    1
    15    17    18   ar
    16    18    19   ar
    17    19    20   ar
    18    20    23    1
    19    23    24    1
    20    24    25    1
    21    25    26    1
    22    26    27    1
    23    27    28    1
    24    20    21   ar
    25    21    22   ar
    26    22    29    1
    27    29    30    1
    28    30    31    1
    29    10     5    1
    30    22    17   ar
    31    31    29    1
    32    15     6    1
    33    28    23    1
    34    14     8    1
    35     3     4    1
    36    13    16    1
@<TRIPOS>MOLECULE
*****
 31 36 0 0 0
SMALL
GASTEIGER

@<TRIPOS>ATOM
      1 O         143.4534  138.5217  165.3811 O.2     1  UNL1       -0.2700
      2 C         142.6807  139.3084  164.3643 C.2     1  UNL1        0.2485
      3 N         141.8694  140.4952  164.7926 N.am    1  UNL1       -0.3024
      4 H         141.3623  141.0115  164.1252 H       1  UNL1        0.1497
      5 C         141.8308  140.8951  166.2378 C.3     1  UNL1        0.0719
      6 C         140.6932  140.4511  167.1088 C.3     1  UNL1        0.0203
      7 C         141.7922  141.2951  167.6830 C.3     1  UNL1        0.0018
      8 C         141.7535  141.6951  169.1281 C.3     1  UNL1        0.0024
      9 C         142.8912  142.1391  168.2572 C.3     1  UNL1        0.0018
     10 C         142.9298  141.7392  166.8120 C.3     1  UNL1        0.0203
     11 C         140.8082  141.1506  169.2536 C.3     1  UNL1        0.0285
     12 C         139.5169  140.4069  169.4249 C.3     1  UNL1        0.0884
     13 O         138.3792  139.9629  170.2958 O.3     1  UNL1       -0.3867
     14 C         140.6159  141.2510  169.9991 C.3     1  UNL1        0.0269
     15 C         139.5555  140.0070  167.9797 C.3     1  UNL1        0.0285
     16 H         138.5073  140.3050  171.1944 H       1  UNL1        0.2102
     17 C         142.7193  138.9084  162.9191 C.ar    1  UNL1        0.0861
     18 C         143.9236  139.2287  162.0841 C.ar    1  UNL1        0.1075
     19 N         143.9621  138.8287  160.6390 N.ar    1  UNL1       -0.2120
     20 C         142.7964  138.1084  160.0288 C.ar    1  UNL1        0.2200
     21 N         141.5922  137.7882  160.8637 N.ar    1  UNL1       -0.2179
     22 C         141.5536  138.1882  162.3088 C.ar    1  UNL1        0.0673
     23 N         142.8350  137.7085  158.5836 N.pl3   1  UNL1       -0.2731
     24 C         142.7644  138.7568  157.5131 C.3     1  UNL1        0.1257
     25 C         142.8030  138.3568  156.0679 C.3     1  UNL1        0.1637
     26 O         142.9122  136.9084  155.6933 O.3     1  UNL1       -0.3501
     27 C         142.9829  135.8601  156.7638 C.3     1  UNL1        0.1637
     28 C         142.9443  136.2601  158.2089 C.3     1  UNL1        0.1257
     29 C         140.3493  137.8679  163.1438 C.3     1  UNL1        0.0406
     30 C         138.8693  137.6534  163.2607 C.3     1  UNL1        0.0063
     31 C         139.7435  137.5277  164.4732 C.3     1  UNL1        0.0063
@<TRIPOS>BOND
     1     1     2    2
     2     2     3   am
     3     5     3    1
     4     5     6    1
     5     6     7    1
     6     7     8    1
     7     8     9    1
     8     9    10    1
     9    10    11    1
    10    11    12    1
    11    12    13    1
    12    12    14    1
    13    12    15    1
    14     2    17    1
    15    17    18   ar
    16    18    19   ar
    17    19    20   ar
    18    20    23    1
    19    23    24    1
    20    24    25    1
    21    25    26    1
    22    26    27    1
    23    27    28    1
    24    20    21   ar
    25    21    22   ar
    26    22    29    1
    27    29    30    1
    28    30    31    1
    29    10     5    1
    30    22    17   ar
    31    31    29    1
    32    15     6    1
    33    28    23    1
    34    14     8    1
    35     3     4    1
    36    13    16    1
@<TRIPOS>MOLECULE
*****
 31 36 0 0 0
SMALL
GASTEIGER

@<TRIPOS>ATOM
      1 O         143.0840  143.3449  165.0960 O.2     1  UNL1       -0.2700
      2 C         142.1758  142.6722  164.1098 C.2     1  UNL1        0.2485
      3 N         141.4777  141.3976  164.4813 N.am    1  UNL1       -0.3024
      4 H         140.8816  140.9561  163.8340 H       1  UNL1        0.1497
      5 C         141.6879  140.7956  165.8391 C.3     1  UNL1        0.0719
      6 C         140.8520  141.2504  166.9986 C.3     1  UNL1        0.0203
      7 C         141.8980  140.1937  167.1968 C.3     1  UNL1        0.0018
      8 C         142.1081  139.5918  168.5546 C.3     1  UNL1        0.0024
      9 C         142.9440  139.1371  167.3950 C.3     1  UNL1        0.0018
     10 C         142.7339  139.7390  166.0373 C.3     1  UNL1        0.0203
     11 C         141.3127  140.2306  168.9609 C.3     1  UNL1        0.0285
     12 C         140.2262  141.1032  169.5159 C.3     1  UNL1        0.0884
     13 O         139.3903  141.5579  170.6754 O.3     1  UNL1       -0.3867
     14 C         141.2722  140.0465  169.7141 C.3     1  UNL1        0.0269
     15 C         140.0161  141.7051  168.1581 C.3     1  UNL1        0.0285
     16 H         139.6523  141.0721  171.4731 H       1  UNL1        0.2102
     17 C         141.9656  143.2742  162.7520 C.ar    1  UNL1        0.0861
     18 C         143.0207  143.1290  161.6957 C.ar    1  UNL1        0.1075
     19 N         142.8105  143.7310  160.3380 N.ar    1  UNL1       -0.2120
     20 C         141.5453  144.4781  160.0365 C.ar    1  UNL1        0.2200
     21 N         140.4902  144.6232  161.0928 N.ar    1  UNL1       -0.2179
     22 C         140.7004  144.0213  162.4505 C.ar    1  UNL1        0.0673
     23 N         141.3351  145.0801  158.6787 N.pl3   1  UNL1       -0.2731
     24 C         140.1245  145.9246  158.4120 C.3     1  UNL1        0.1257
     25 C         139.9144  146.5265  157.0542 C.3     1  UNL1        0.1637
     26 O         140.9149  146.2839  155.9633 O.3     1  UNL1       -0.3501
     27 C         142.1255  145.4394  156.2301 C.3     1  UNL1        0.1637
     28 C         142.3356  144.8375  157.5878 C.3     1  UNL1        0.1257
     29 C         139.6452  144.1664  163.5068 C.3     1  UNL1        0.0406
     30 C         138.2231  144.0001  163.9539 C.3     1  UNL1        0.0063
     31 C         139.2399  144.5841  164.8892 C.3     1  UNL1        0.0063
@<TRIPOS>BOND
     1     1     2    2
     2     2     3   am
     3     5     3    1
     4     5     6    1
     5     6     7    1
     6     7     8    1
     7     8     9    1
     8     9    10    1
     9    10    11    1
    10    11    12    1
    11    12    13    1
    12    12    14    1
    13    12    15    1
    14     2    17    1
    15    17    18   ar
    16    18    19   ar
    17    19    20   ar
    18    20    23    1
    19    23    24    1
    20    24    25    1
    21    25    26    1
    22    26    27    1
    23    27    28    1
    24    20    21   ar
    25    21    22   ar
    26    22    29    1
    27    29    30    1
    28    30    31    1
    29    10     5    1
    30    22    17   ar
    31    31    29    1
    32    15     6    1
    33    28    23    1
    34    14     8    1
    35     3     4    1
    36    13    16    1
@<TRIPOS>MOLECULE
*****
 31 36 0 0 0
SMALL
GASTEIGER

@<TRIPOS>ATOM
      1 O         138.9311  141.3919  165.3489 O.2     1  UNL1       -0.2700
      2 C         140.0288  140.4051  165.0822 C.2     1  UNL1        0.2485
      3 N         140.8789  139.9052  166.2124 N.am    1  UNL1       -0.3024
      4 H         141.5994  139.2575  166.0373 H       1  UNL1        0.1497
      5 C         140.6314  140.3923  167.6094 C.3     1  UNL1        0.0719
      6 C         141.6110  141.3200  168.2649 C.3     1  UNL1        0.0203
      7 C         140.3839  140.8793  169.0064 C.3     1  UNL1        0.0018
      8 C         140.1364  141.3664  170.4033 C.3     1  UNL1        0.0024
      9 C         139.1568  140.4387  169.7479 C.3     1  UNL1        0.0018
     10 C         139.4042  139.9516  168.3509 C.3     1  UNL1        0.0203
     11 C         141.0691  141.9448  170.3670 C.3     1  UNL1        0.0285
     12 C         142.3432  142.7348  170.3172 C.3     1  UNL1        0.0884
     13 O         143.3229  143.6625  170.9727 O.3     1  UNL1       -0.3867
     14 C         141.1161  142.2941  171.0587 C.3     1  UNL1        0.0269
     15 C         142.5907  142.2478  168.9203 C.3     1  UNL1        0.0285
     16 H         143.0149  143.8788  171.8667 H       1  UNL1        0.2102
     17 C         140.2763  139.9180  163.6852 C.ar    1  UNL1        0.0861
     18 C         139.5457  138.7134  163.1704 C.ar    1  UNL1        0.1075
     19 N         139.7933  138.2264  161.7735 N.ar    1  UNL1       -0.2120
     20 C         140.7714  138.9440  160.8913 C.ar    1  UNL1        0.2200
     21 N         141.5020  140.1487  161.4061 N.ar    1  UNL1       -0.2179
     22 C         141.2545  140.6356  162.8030 C.ar    1  UNL1        0.0673
     23 N         141.0190  138.4570  159.4943 N.pl3   1  UNL1       -0.2731
     24 C         142.4019  138.0562  159.0737 C.3     1  UNL1        0.1257
     25 C         142.6493  137.5692  157.6768 C.3     1  UNL1        0.1637
     26 O         141.5139  137.4829  156.7004 O.3     1  UNL1       -0.3501
     27 C         140.1310  137.8837  157.1209 C.3     1  UNL1        0.1637
     28 C         139.8835  138.3707  158.5179 C.3     1  UNL1        0.1257
     29 C         141.9851  141.8403  163.3179 C.3     1  UNL1        0.0406
     30 C         142.1729  143.3281  163.3551 C.3     1  UNL1        0.0063
     31 C         143.0626  142.4391  164.1725 C.3     1  UNL1        0.0063
@<TRIPOS>BOND
     1     1     2    2
     2     2     3   am
     3     5     3    1
     4     5     6    1
     5     6     7    1
     6     7     8    1
     7     8     9    1
     8     9    10    1
     9    10    11    1
    10    11    12    1
    11    12    13    1
    12    12    14    1
    13    12    15    1
    14     2    17    1
    15    17    18   ar
    16    18    19   ar
    17    19    20   ar
    18    20    23    1
    19    23    24    1
    20    24    25    1
    21    25    26    1
    22    26    27    1
    23    27    28    1
    24    20    21   ar
    25    21    22   ar
    26    22    29    1
    27    29    30    1
    28    30    31    1
    29    10     5    1
    30    22    17   ar
    31    31    29    1
    32    15     6    1
    33    28    23    1
    34    14     8    1
    35     3     4    1
    36    13    16    1
@<TRIPOS>MOLECULE
*****
 31 36 0 0 0
SMALL
GASTEIGER

@<TRIPOS>ATOM
      1 O         142.1749  140.4444  164.1698 O.2     1  UNL1       -0.2700
      2 C         141.2517  141.5163  163.6712 C.2     1  UNL1        0.2485
      3 N         140.1104  141.9807  164.5265 N.am    1  UNL1       -0.3024
      4 H         139.5045  142.6843  164.1992 H       1  UNL1        0.1497
      5 C         139.8922  141.3732  165.8805 C.3     1  UNL1        0.0719
      6 C         140.3079  142.1198  167.1133 C.3     1  UNL1        0.0203
      7 C         139.6741  140.7657  167.2345 C.3     1  UNL1        0.0018
      8 C         139.4560  140.1583  168.5885 C.3     1  UNL1        0.0024
      9 C         139.0403  139.4117  167.3557 C.3     1  UNL1        0.0018
     10 C         139.2585  140.0191  166.0017 C.3     1  UNL1        0.0203
     11 C         139.8995  141.0462  169.0584 C.3     1  UNL1        0.0285
     12 C         140.5054  142.2590  169.7001 C.3     1  UNL1        0.0884
     13 O         140.9210  143.0056  170.9329 O.3     1  UNL1       -0.3867
     14 C         139.8716  140.9049  169.8213 C.3     1  UNL1        0.0269
     15 C         140.7235  142.8665  168.3461 C.3     1  UNL1        0.0285
     16 H         140.7107  142.4761  171.7180 H       1  UNL1        0.2102
     17 C         141.4699  142.1238  162.3171 C.ar    1  UNL1        0.0861
     18 C         140.7619  141.5619  161.1200 C.ar    1  UNL1        0.1075
     19 N         140.9801  142.1695  159.7661 N.ar    1  UNL1       -0.2120
     20 C         141.9063  143.3389  159.6092 C.ar    1  UNL1        0.2200
     21 N         142.6143  143.9008  160.8062 N.ar    1  UNL1       -0.2179
     22 C         142.3961  143.2933  162.1602 C.ar    1  UNL1        0.0673
     23 N         142.1245  143.9464  158.2551 N.pl3   1  UNL1       -0.2731
     24 C         142.6973  143.1170  157.1444 C.3     1  UNL1        0.1257
     25 C         142.9154  143.7245  155.7904 C.3     1  UNL1        0.1637
     26 O         142.5607  145.1615  155.5472 O.3     1  UNL1       -0.3501
     27 C         141.9879  145.9910  156.6579 C.3     1  UNL1        0.1637
     28 C         141.7697  145.3835  158.0119 C.3     1  UNL1        0.1257
     29 C         143.1041  143.8552  163.3573 C.3     1  UNL1        0.0406
     30 C         143.8651  143.6465  164.6330 C.3     1  UNL1        0.0063
     31 C         143.5693  145.0372  164.1551 C.3     1  UNL1        0.0063
@<TRIPOS>BOND
     1     1     2    2
     2     2     3   am
     3     5     3    1
     4     5     6    1
     5     6     7    1
     6     7     8    1
     7     8     9    1
     8     9    10    1
     9    10    11    1
    10    11    12    1
    11    12    13    1
    12    12    14    1
    13    12    15    1
    14     2    17    1
    15    17    18   ar
    16    18    19   ar
    17    19    20   ar
    18    20    23    1
    19    23    24    1
    20    24    25    1
    21    25    26    1
    22    26    27    1
    23    27    28    1
    24    20    21   ar
    25    21    22   ar
    26    22    29    1
    27    29    30    1
    28    30    31    1
    29    10     5    1
    30    22    17   ar
    31    31    29    1
    32    15     6    1
    33    28    23    1
    34    14     8    1
    35     3     4    1
    36    13    16    1
