@<TRIPOS>MOLECULE
*****
 39 43 0 0 0
SMALL
GASTEIGER

@<TRIPOS>ATOM
      1 N         143.1786  138.6351  157.5822 N.am    1  UNL1       -0.2531
      2 C         142.8493  138.8797  159.0250 C.2     1  UNL1        0.3135
      3 O         142.0861  137.8507  159.8051 O.2     1  UNL1       -0.2518
      4 N         143.2832  140.1536  159.6878 N.am    1  UNL1       -0.2282
      5 C         144.0464  141.1826  158.9078 C.3     1  UNL1        0.1015
      6 C         144.4802  142.4564  159.5705 C.3     1  UNL1        0.0268
      7 C         144.1509  142.7010  161.0134 C.3     1  UNL1        0.0310
      8 C         143.3878  141.6719  161.7934 C.ar    1  UNL1        0.0096
      9 C         143.0585  141.9166  163.2362 C.ar    1  UNL1       -0.0042
     10 C         142.2953  140.8875  164.0162 C.ar    1  UNL1       -0.0017
     11 CA        141.8614  139.6137  163.3535 C.ar    1  UNL1        0.1208
     12 N         142.1907  139.3690  161.9107 N.ar    1  UNL1       -0.2276
     13 C         142.9539  140.3982  161.1306 C.ar    1  UNL1        0.1345
     14 H         143.6795  139.3105  157.0703 H       1  UNL1        0.1578
     15 C         142.6843  134.7647  156.8572 C.ar    1  UNL1        0.1525
     16 C         143.1181  136.0384  157.5200 C.ar    1  UNL1        0.0721
     17 C         142.7447  137.3614  156.9195 C.ar    1  UNL1        0.1384
     18 N         141.9374  137.4105  155.6562 N.ar    1  UNL1       -0.2281
     19 C         141.5036  136.1366  154.9934 C.ar    1  UNL1        0.1136
     20 C         141.8770  134.8138  155.5939 C.ar    1  UNL1        0.1215
     21 C         141.4431  133.5401  154.9311 C.1     1  UNL1        0.1051
     22 N         141.0092  132.2663  154.2683 N.1     1  UNL1       -0.1907
     23 O         143.0577  133.4419  157.4577 O.3     1  UNL1       -0.4719
     24 C         144.4438  133.2233  157.9877 C.3     1  UNL1        0.2373
     25 C         145.2151  132.0003  157.5886 C.3     1  UNL1        0.1894
     26 C         144.4075  130.8532  155.4019 C.3     1  UNL1        0.1743
     27 O         145.4185  131.6824  156.1368 O.3     1  UNL1       -0.3471
     28 C         141.9660  141.1322  165.4591 C.3     1  UNL1        0.0267
     29 C         140.7631  141.9499  165.8256 C.3     1  UNL1        0.0218
     30 C         140.4338  142.1946  167.2684 C.3     1  UNL1        0.0725
     31 N         141.3074  141.6215  168.3447 N.3     1  UNL1       -0.2697
     32 C         142.5103  140.8037  167.9782 C.3     1  UNL1        0.0725
     33 C         142.8396  140.5590  166.5354 C.3     1  UNL1        0.0218
     34 C         140.9780  141.8661  169.7875 C.3     1  UNL1        0.1172
     35 C         139.9328  142.6562  170.5177 C.3     1  UNL1        0.1606
     36 O         140.5123  142.2121  171.8279 O.3     1  UNL1       -0.3507
     37 C         141.5576  141.4220  171.0978 C.3     1  UNL1        0.1606
     38 C         141.0982  138.5846  164.1335 C.2     1  UNL1        0.2529
     39 O         140.8325  137.2349  163.5352 O.2     1  UNL1       -0.2815
@<TRIPOS>BOND
     1    26    27    1
     2    27    25    1
     3    25    24    1
     4    24    23    1
     5    23    15    1
     6    15    16   ar
     7    16    17   ar
     8    17     1    1
     9     1     2   am
    10     2     3    2
    11     2     4   am
    12     4     5    1
    13     5     6    1
    14     6     7    1
    15     7     8    1
    16     8     9   ar
    17     9    10   ar
    18    10    28    1
    19    28    29    1
    20    29    30    1
    21    30    31    1
    22    31    34    1
    23    34    35    1
    24    35    36    1
    25    36    37    1
    26    31    32    1
    27    32    33    1
    28    10    11   ar
    29    11    38    1
    30    38    39    2
    31    11    12   ar
    32    12    13   ar
    33    17    18   ar
    34    18    19   ar
    35    19    20   ar
    36    20    21    1
    37    21    22    3
    38    20    15   ar
    39    13     4    1
    40    13     8   ar
    41    33    28    1
    42    37    34    1
    43     1    14    1
@<TRIPOS>MOLECULE
*****
 39 43 0 0 0
SMALL
GASTEIGER

@<TRIPOS>ATOM
      1 N         143.4008  139.0145  157.2512 N.am    1  UNL1       -0.2531
      2 C         143.0525  139.0872  158.7084 C.2     1  UNL1        0.3135
      3 O         142.3109  137.9576  159.3595 O.2     1  UNL1       -0.2518
      4 N         143.4459  140.2896  159.5145 N.am    1  UNL1       -0.2282
      5 C         144.1875  141.4192  158.8634 C.3     1  UNL1        0.1015
      6 C         144.5808  142.6214  159.6695 C.3     1  UNL1        0.0268
      7 C         144.2325  142.6941  161.1267 C.3     1  UNL1        0.0310
      8 C         143.4909  141.5645  161.7778 C.ar    1  UNL1        0.0096
      9 C         143.1426  141.6372  163.2350 C.ar    1  UNL1       -0.0042
     10 C         142.4009  140.5076  163.8861 C.ar    1  UNL1       -0.0017
     11 CA        142.0076  139.3053  163.0800 C.ar    1  UNL1        0.1208
     12 N         142.3559  139.2326  161.6228 N.ar    1  UNL1       -0.2276
     13 C         143.0976  140.3623  160.9717 C.ar    1  UNL1        0.1345
     14 H         143.8876  139.7559  156.8239 H       1  UNL1        0.1578
     15 C         141.2274  136.5046  155.0773 C.ar    1  UNL1        0.1525
     16 C         141.6207  137.7069  155.8834 C.ar    1  UNL1        0.0721
     17 C         143.0075  137.8122  156.4452 C.ar    1  UNL1        0.1384
     18 N         144.0010  136.7153  156.2008 N.ar    1  UNL1       -0.2281
     19 C         143.6077  135.5130  155.3947 C.ar    1  UNL1        0.1136
     20 C         142.2209  135.4077  154.8330 C.ar    1  UNL1        0.1215
     21 C         141.8276  134.2054  154.0269 C.1     1  UNL1        0.1051
     22 N         141.4342  133.0030  153.2208 N.1     1  UNL1       -0.1907
     23 O         139.8405  136.3992  154.5155 O.3     1  UNL1       -0.4719
     24 C         138.7794  137.3657  154.9513 C.3     1  UNL1        0.2373
     25 C         137.5257  137.5182  154.1419 C.3     1  UNL1        0.1894
     26 C         135.6548  139.2732  154.5541 C.3     1  UNL1        0.1743
     27 O         136.2446  137.9183  154.8117 O.3     1  UNL1       -0.3471
     28 C         142.0526  140.5803  165.3433 C.3     1  UNL1        0.0267
     29 C         140.8198  141.3122  165.7841 C.3     1  UNL1        0.0218
     30 C         140.4715  141.3849  167.2413 C.3     1  UNL1        0.0725
     31 N         141.3560  140.7257  168.2576 N.3     1  UNL1       -0.2697
     32 C         142.5889  139.9937  167.8168 C.3     1  UNL1        0.0725
     33 C         142.9372  139.9211  166.3596 C.3     1  UNL1        0.0218
     34 C         141.0077  140.7984  169.7148 C.3     1  UNL1        0.1172
     35 C         141.3467  141.7290  170.8413 C.3     1  UNL1        0.1606
     36 O         140.5151  140.9012  171.7756 O.3     1  UNL1       -0.3507
     37 C         140.1761  139.9704  170.6492 C.3     1  UNL1        0.1606
     38 C         141.2660  138.1757  163.7311 C.2     1  UNL1        0.2529
     39 O         140.9333  136.9437  162.9427 O.2     1  UNL1       -0.2815
@<TRIPOS>BOND
     1    26    27    1
     2    27    25    1
     3    25    24    1
     4    24    23    1
     5    23    15    1
     6    15    16   ar
     7    16    17   ar
     8    17     1    1
     9     1     2   am
    10     2     3    2
    11     2     4   am
    12     4     5    1
    13     5     6    1
    14     6     7    1
    15     7     8    1
    16     8     9   ar
    17     9    10   ar
    18    10    28    1
    19    28    29    1
    20    29    30    1
    21    30    31    1
    22    31    34    1
    23    34    35    1
    24    35    36    1
    25    36    37    1
    26    31    32    1
    27    32    33    1
    28    10    11   ar
    29    11    38    1
    30    38    39    2
    31    11    12   ar
    32    12    13   ar
    33    17    18   ar
    34    18    19   ar
    35    19    20   ar
    36    20    21    1
    37    21    22    3
    38    20    15   ar
    39    13     4    1
    40    13     8   ar
    41    33    28    1
    42    37    34    1
    43     1    14    1
@<TRIPOS>MOLECULE
*****
 39 43 0 0 0
SMALL
GASTEIGER

@<TRIPOS>ATOM
      1 N         139.4773  139.8018  157.2321 N.am    1  UNL1       -0.2531
      2 C         139.4408  140.0974  158.7022 C.2     1  UNL1        0.3135
      3 O         138.2455  140.7773  159.3012 O.2     1  UNL1       -0.2518
      4 N         140.5999  139.7131  159.5734 N.am    1  UNL1       -0.2282
      5 C         141.7953  139.0332  158.9745 C.3     1  UNL1        0.1015
      6 C         142.9543  138.6489  159.8457 C.3     1  UNL1        0.0268
      7 C         142.9179  138.9445  161.3159 C.3     1  UNL1        0.0310
      8 C         141.7225  139.6244  161.9148 C.ar    1  UNL1        0.0096
      9 C         141.6861  139.9200  163.3849 C.ar    1  UNL1       -0.0042
     10 C         140.4907  140.5999  163.9839 C.ar    1  UNL1       -0.0017
     11 CA        139.3316  140.9842  163.1126 C.ar    1  UNL1        0.1208
     12 N         139.3680  140.6886  161.6425 N.ar    1  UNL1       -0.2276
     13 C         140.5635  140.0087  161.0436 C.ar    1  UNL1        0.1345
     14 H         140.2619  139.3556  156.8390 H       1  UNL1        0.1578
     15 C         136.7430  142.0078  155.3862 C.ar    1  UNL1        0.1525
     16 C         137.9020  141.6235  156.2574 C.ar    1  UNL1        0.0721
     17 C         138.3183  140.1861  156.3609 C.ar    1  UNL1        0.1384
     18 N         137.5756  139.1331  155.5931 N.ar    1  UNL1       -0.2281
     19 C         136.4165  139.5174  154.7219 C.ar    1  UNL1        0.1136
     20 C         136.0003  140.9548  154.6184 C.ar    1  UNL1        0.1215
     21 C         134.8413  141.3390  153.7472 C.1     1  UNL1        0.1051
     22 N         133.6822  141.7233  152.8760 N.1     1  UNL1       -0.1907
     23 O         136.3267  143.4451  155.2828 O.3     1  UNL1       -0.4719
     24 C         137.1875  144.4237  154.5402 C.3     1  UNL1        0.2373
     25 C         138.2129  145.2318  155.2787 C.3     1  UNL1        0.1894
     26 C         139.0289  147.5700  156.0643 C.3     1  UNL1        0.1743
     27 O         138.2799  146.7175  155.0834 O.3     1  UNL1       -0.3471
     28 C         140.4543  140.8955  165.4540 C.3     1  UNL1        0.0267
     29 C         140.0300  139.8317  166.4226 C.3     1  UNL1        0.0218
     30 C         139.9936  140.1273  167.8927 C.3     1  UNL1        0.0725
     31 N         140.3815  141.4867  168.3943 N.3     1  UNL1       -0.2697
     32 C         140.8057  142.5506  167.4256 C.3     1  UNL1        0.0725
     33 C         140.8421  142.2550  165.9555 C.3     1  UNL1        0.0218
     34 C         140.3450  141.7823  169.8644 C.3     1  UNL1        0.1172
     35 C         140.8286  141.0817  171.0995 C.3     1  UNL1        0.1606
     36 O         140.2936  142.2003  171.9435 O.3     1  UNL1       -0.3507
     37 C         139.8100  142.9010  170.7085 C.3     1  UNL1        0.1606
     38 C         138.1362  141.6641  163.7116 C.2     1  UNL1        0.2529
     39 O         136.8572  141.7557  162.9332 O.2     1  UNL1       -0.2815
@<TRIPOS>BOND
     1    26    27    1
     2    27    25    1
     3    25    24    1
     4    24    23    1
     5    23    15    1
     6    15    16   ar
     7    16    17   ar
     8    17     1    1
     9     1     2   am
    10     2     3    2
    11     2     4   am
    12     4     5    1
    13     5     6    1
    14     6     7    1
    15     7     8    1
    16     8     9   ar
    17     9    10   ar
    18    10    28    1
    19    28    29    1
    20    29    30    1
    21    30    31    1
    22    31    34    1
    23    34    35    1
    24    35    36    1
    25    36    37    1
    26    31    32    1
    27    32    33    1
    28    10    11   ar
    29    11    38    1
    30    38    39    2
    31    11    12   ar
    32    12    13   ar
    33    17    18   ar
    34    18    19   ar
    35    19    20   ar
    36    20    21    1
    37    21    22    3
    38    20    15   ar
    39    13     4    1
    40    13     8   ar
    41    33    28    1
    42    37    34    1
    43     1    14    1
@<TRIPOS>MOLECULE
*****
 39 43 0 0 0
SMALL
GASTEIGER

@<TRIPOS>ATOM
      1 N         137.8994  139.9345  158.8174 N.am    1  UNL1       -0.2531
      2 C         138.3201  141.2778  158.2991 C.2     1  UNL1        0.3135
      3 O         139.4435  142.0190  158.9614 O.2     1  UNL1       -0.2518
      4 N         137.6175  141.8799  157.1185 N.am    1  UNL1       -0.2282
      5 C         136.4941  141.1386  156.4562 C.3     1  UNL1        0.1015
      6 C         135.7915  141.7407  155.2756 C.3     1  UNL1        0.0268
      7 C         136.2122  143.0840  154.7573 C.3     1  UNL1        0.0310
      8 C         137.3356  143.8252  155.4196 C.ar    1  UNL1        0.0096
      9 C         137.7563  145.1685  154.9014 C.ar    1  UNL1       -0.0042
     10 C         138.8796  145.9097  155.5637 C.ar    1  UNL1       -0.0017
     11 CA        139.5823  145.3076  156.7443 C.ar    1  UNL1        0.1208
     12 N         139.1616  143.9643  157.2626 N.ar    1  UNL1       -0.2276
     13 C         138.0382  143.2231  156.6002 C.ar    1  UNL1        0.1345
     14 H         137.1621  139.4480  158.3827 H       1  UNL1        0.1578
     15 C         140.7051  138.2127  161.0340 C.ar    1  UNL1        0.1525
     16 C         140.0025  138.8147  159.8534 C.ar    1  UNL1        0.0721
     17 C         138.6020  139.3324  159.9980 C.ar    1  UNL1        0.1384
     18 N         137.9043  139.2481  161.3231 N.ar    1  UNL1       -0.2281
     19 C         138.6070  138.6459  162.5037 C.ar    1  UNL1        0.1136
     20 C         140.0073  138.1283  162.3592 C.ar    1  UNL1        0.1215
     21 C         140.7099  137.5262  163.5397 C.1     1  UNL1        0.1051
     22 N         141.4126  136.9241  164.7204 N.1     1  UNL1       -0.1907
     23 O         142.1054  137.6950  160.8895 O.3     1  UNL1       -0.4719
     24 C         143.2064  138.6195  160.4615 C.3     1  UNL1        0.2373
     25 C         144.1000  139.2480  161.4894 C.3     1  UNL1        0.1894
     26 C         144.6336  139.5951  164.0083 C.3     1  UNL1        0.1743
     27 O         144.0925  138.7403  162.9009 O.3     1  UNL1       -0.3471
     28 C         139.3003  147.2530  155.0454 C.3     1  UNL1        0.0267
     29 C         140.3005  147.3475  153.9316 C.3     1  UNL1        0.0218
     30 C         140.7212  148.6908  153.4133 C.3     1  UNL1        0.0725
     31 N         140.1418  149.9395  154.0089 N.3     1  UNL1       -0.2697
     32 C         139.1415  149.8451  155.1228 C.3     1  UNL1        0.0725
     33 C         138.7208  148.5018  155.6410 C.3     1  UNL1        0.0218
     34 C         140.5625  151.2828  153.4906 C.3     1  UNL1        0.1172
     35 C         140.0022  152.2609  152.5009 C.3     1  UNL1        0.1606
     36 O         141.1574  153.1825  152.7577 O.3     1  UNL1       -0.3507
     37 C         141.7178  152.2045  153.7474 C.3     1  UNL1        0.1606
     38 C         140.7056  146.0488  157.4066 C.2     1  UNL1        0.2529
     39 O         142.0998  145.9383  156.8643 O.2     1  UNL1       -0.2815
@<TRIPOS>BOND
     1    26    27    1
     2    27    25    1
     3    25    24    1
     4    24    23    1
     5    23    15    1
     6    15    16   ar
     7    16    17   ar
     8    17     1    1
     9     1     2   am
    10     2     3    2
    11     2     4   am
    12     4     5    1
    13     5     6    1
    14     6     7    1
    15     7     8    1
    16     8     9   ar
    17     9    10   ar
    18    10    28    1
    19    28    29    1
    20    29    30    1
    21    30    31    1
    22    31    34    1
    23    34    35    1
    24    35    36    1
    25    36    37    1
    26    31    32    1
    27    32    33    1
    28    10    11   ar
    29    11    38    1
    30    38    39    2
    31    11    12   ar
    32    12    13   ar
    33    17    18   ar
    34    18    19   ar
    35    19    20   ar
    36    20    21    1
    37    21    22    3
    38    20    15   ar
    39    13     4    1
    40    13     8   ar
    41    33    28    1
    42    37    34    1
    43     1    14    1
@<TRIPOS>MOLECULE
*****
 39 43 0 0 0
SMALL
GASTEIGER

@<TRIPOS>ATOM
      1 N         137.9381  140.0335  158.8143 N.am    1  UNL1       -0.2531
      2 C         138.3639  141.3650  158.2706 C.2     1  UNL1        0.3135
      3 O         139.5062  142.1030  158.9033 O.2     1  UNL1       -0.2518
      4 N         137.6472  141.9586  157.0940 N.am    1  UNL1       -0.2282
      5 C         136.5049  141.2207  156.4613 C.3     1  UNL1        0.1015
      6 C         135.7883  141.8143  155.2848 C.3     1  UNL1        0.0268
      7 C         136.2141  143.1458  154.7411 C.3     1  UNL1        0.0310
      8 C         137.3565  143.8838  155.3738 C.ar    1  UNL1        0.0096
      9 C         137.7823  145.2153  154.8301 C.ar    1  UNL1       -0.0042
     10 C         138.9246  145.9533  155.4628 C.ar    1  UNL1       -0.0017
     11 CA        139.6413  145.3597  156.6393 C.ar    1  UNL1        0.1208
     12 N         139.2155  144.0281  157.1831 N.ar    1  UNL1       -0.2276
     13 C         138.0730  143.2902  156.5503 C.ar    1  UNL1        0.1345
     14 H         137.1883  139.5491  158.3990 H       1  UNL1        0.1578
     15 C         138.7712  138.9446  162.5386 C.ar    1  UNL1        0.1525
     16 C         138.0547  139.5382  161.3621 C.ar    1  UNL1        0.0721
     17 C         138.6546  139.4398  159.9908 C.ar    1  UNL1        0.1384
     18 N         139.9712  138.7479  159.7960 N.ar    1  UNL1       -0.2281
     19 C         140.6877  138.1543  160.9726 C.ar    1  UNL1        0.1136
     20 C         140.0877  138.2526  162.3438 C.ar    1  UNL1        0.1215
     21 C         140.8043  137.6590  163.5203 C.1     1  UNL1        0.1051
     22 N         141.5209  137.0653  164.6968 N.1     1  UNL1       -0.1907
     23 O         138.1712  139.0429  163.9098 O.3     1  UNL1       -0.4719
     24 C         138.1741  140.3546  164.6374 C.3     1  UNL1        0.2373
     25 C         139.2720  141.3466  164.3909 C.3     1  UNL1        0.1894
     26 C         137.7945  142.8994  162.9227 C.3     1  UNL1        0.1743
     27 O         138.9440  142.7138  163.8682 O.3     1  UNL1       -0.3471
     28 C         139.3504  147.2848  154.9191 C.3     1  UNL1        0.0267
     29 C         138.8005  148.5479  155.5125 C.3     1  UNL1        0.0218
     30 C         139.2263  149.8794  154.9687 C.3     1  UNL1        0.0725
     31 N         140.2020  149.9479  153.8316 N.3     1  UNL1       -0.2697
     32 C         140.7521  148.6848  153.2381 C.3     1  UNL1        0.0725
     33 C         140.3263  147.3533  153.7818 C.3     1  UNL1        0.0218
     34 C         140.6278  151.2795  153.2878 C.3     1  UNL1        0.1172
     35 C         141.7544  151.7607  152.4222 C.3     1  UNL1        0.1606
     36 O         141.2300  153.1626  152.5189 O.3     1  UNL1       -0.3507
     37 C         140.1034  152.6816  153.3845 C.3     1  UNL1        0.1606
     38 C         140.7836  146.0976  157.2721 C.2     1  UNL1        0.2529
     39 O         141.6267  145.4238  158.3139 O.2     1  UNL1       -0.2815
@<TRIPOS>BOND
     1    26    27    1
     2    27    25    1
     3    25    24    1
     4    24    23    1
     5    23    15    1
     6    15    16   ar
     7    16    17   ar
     8    17     1    1
     9     1     2   am
    10     2     3    2
    11     2     4   am
    12     4     5    1
    13     5     6    1
    14     6     7    1
    15     7     8    1
    16     8     9   ar
    17     9    10   ar
    18    10    28    1
    19    28    29    1
    20    29    30    1
    21    30    31    1
    22    31    34    1
    23    34    35    1
    24    35    36    1
    25    36    37    1
    26    31    32    1
    27    32    33    1
    28    10    11   ar
    29    11    38    1
    30    38    39    2
    31    11    12   ar
    32    12    13   ar
    33    17    18   ar
    34    18    19   ar
    35    19    20   ar
    36    20    21    1
    37    21    22    3
    38    20    15   ar
    39    13     4    1
    40    13     8   ar
    41    33    28    1
    42    37    34    1
    43     1    14    1
@<TRIPOS>MOLECULE
*****
 39 43 0 0 0
SMALL
GASTEIGER

@<TRIPOS>ATOM
      1 N         139.8845  139.0230  164.3727 N.am    1  UNL1       -0.2531
      2 C         139.9299  140.1068  163.3367 C.2     1  UNL1        0.3135
      3 O         140.0668  141.5403  163.7566 O.2     1  UNL1       -0.2518
      4 N         139.8384  139.7571  161.8809 N.am    1  UNL1       -0.2282
      5 C         139.7015  138.3236  161.4610 C.3     1  UNL1        0.1015
      6 C         139.6101  137.9740  160.0053 C.3     1  UNL1        0.0268
      7 C         139.6555  139.0578  158.9693 C.3     1  UNL1        0.0310
      8 C         139.7924  140.4913  159.3891 C.ar    1  UNL1        0.0096
      9 C         139.8378  141.5752  158.3532 C.ar    1  UNL1       -0.0042
     10 C         139.9747  143.0087  158.7730 C.ar    1  UNL1       -0.0017
     11 CA        140.0662  143.3584  160.2289 C.ar    1  UNL1        0.1208
     12 N         140.0208  142.2745  161.2648 N.ar    1  UNL1       -0.2276
     13 C         139.8839  140.8410  160.8449 C.ar    1  UNL1        0.1345
     14 H         139.7946  138.0821  164.0971 H       1  UNL1        0.1578
     15 C         141.3854  140.1232  167.8779 C.ar    1  UNL1        0.1525
     16 C         141.2939  139.7736  166.4221 C.ar    1  UNL1        0.0721
     17 C         139.9760  139.3726  165.8285 C.ar    1  UNL1        0.1384
     18 N         138.7496  139.3213  166.6906 N.ar    1  UNL1       -0.2281
     19 C         138.8411  139.6710  168.1465 C.ar    1  UNL1        0.1136
     20 C         140.1590  140.0719  168.7401 C.ar    1  UNL1        0.1215
     21 C         140.2505  140.4215  170.1959 C.1     1  UNL1        0.1051
     22 N         140.3419  140.7712  171.6517 N.1     1  UNL1       -0.1907
     23 O         142.7032  140.5241  168.4715 O.3     1  UNL1       -0.4719
     24 C         143.0610  141.9759  168.5919 C.3     1  UNL1        0.2373
     25 C         143.3101  142.5774  169.9433 C.3     1  UNL1        0.1894
     26 C         141.0338  143.8296  169.9223 C.3     1  UNL1        0.1743
     27 O         142.4329  143.6865  170.4437 O.3     1  UNL1       -0.3471
     28 C         140.0201  144.0926  157.7371 C.3     1  UNL1        0.0267
     29 C         138.9381  144.1870  156.7025 C.3     1  UNL1        0.0218
     30 C         138.9836  145.2709  155.6666 C.3     1  UNL1        0.0725
     31 N         140.1110  146.2603  155.6652 N.3     1  UNL1       -0.2697
     32 C         141.1931  146.1658  156.6998 C.3     1  UNL1        0.0725
     33 C         141.1476  145.0819  157.7357 C.3     1  UNL1        0.0218
     34 C         140.1564  147.3441  154.6292 C.3     1  UNL1        0.1172
     35 C         139.5726  148.7205  154.5078 C.3     1  UNL1        0.1606
     36 O         140.2206  148.8769  153.1642 O.3     1  UNL1       -0.3507
     37 C         140.8045  147.5006  153.2855 C.3     1  UNL1        0.1606
     38 C         140.2031  144.7919  160.6487 C.2     1  UNL1        0.2529
     39 O         139.2438  145.3773  161.6423 O.2     1  UNL1       -0.2815
@<TRIPOS>BOND
     1    26    27    1
     2    27    25    1
     3    25    24    1
     4    24    23    1
     5    23    15    1
     6    15    16   ar
     7    16    17   ar
     8    17     1    1
     9     1     2   am
    10     2     3    2
    11     2     4   am
    12     4     5    1
    13     5     6    1
    14     6     7    1
    15     7     8    1
    16     8     9   ar
    17     9    10   ar
    18    10    28    1
    19    28    29    1
    20    29    30    1
    21    30    31    1
    22    31    34    1
    23    34    35    1
    24    35    36    1
    25    36    37    1
    26    31    32    1
    27    32    33    1
    28    10    11   ar
    29    11    38    1
    30    38    39    2
    31    11    12   ar
    32    12    13   ar
    33    17    18   ar
    34    18    19   ar
    35    19    20   ar
    36    20    21    1
    37    21    22    3
    38    20    15   ar
    39    13     4    1
    40    13     8   ar
    41    33    28    1
    42    37    34    1
    43     1    14    1
@<TRIPOS>MOLECULE
*****
 39 43 0 0 0
SMALL
GASTEIGER

@<TRIPOS>ATOM
      1 N         143.1218  139.7117  164.5277 N.am    1  UNL1       -0.2531
      2 C         142.2846  140.1515  163.3633 C.2     1  UNL1        0.3135
      3 O         141.3667  141.3296  163.5021 O.2     1  UNL1       -0.2518
      4 N         142.3654  139.4129  162.0602 N.am    1  UNL1       -0.2282
      5 C         143.2833  138.2347  161.9215 C.3     1  UNL1        0.1015
      6 C         143.3640  137.4963  160.6184 C.3     1  UNL1        0.0268
      7 C         142.5269  137.9360  159.4540 C.3     1  UNL1        0.0310
      8 C         141.6090  139.1142  159.5927 C.ar    1  UNL1        0.0096
      9 C         140.7718  139.5540  158.4283 C.ar    1  UNL1       -0.0042
     10 C         139.8539  140.7321  158.5670 C.ar    1  UNL1       -0.0017
     11 CA        139.7731  141.4707  159.8702 C.ar    1  UNL1        0.1208
     12 N         140.6103  141.0309  161.0346 N.ar    1  UNL1       -0.2276
     13 C         141.5282  139.8527  160.8958 C.ar    1  UNL1        0.1345
     14 H         143.7243  138.9384  164.4367 H       1  UNL1        0.1578
     15 C         142.4851  140.4815  168.3686 C.ar    1  UNL1        0.1525
     16 C         142.5659  139.7430  167.0654 C.ar    1  UNL1        0.0721
     17 C         143.0411  140.4502  165.8308 C.ar    1  UNL1        0.1384
     18 N         143.4356  141.8957  165.8994 N.ar    1  UNL1       -0.2281
     19 C         143.3548  142.6342  167.2026 C.ar    1  UNL1        0.1136
     20 C         142.8796  141.9271  168.4371 C.ar    1  UNL1        0.1215
     21 C         142.7989  142.6655  169.7402 C.1     1  UNL1        0.1051
     22 N         142.7181  143.4040  171.0434 N.1     1  UNL1       -0.1907
     23 O         142.0099  139.7744  169.6031 O.3     1  UNL1       -0.4719
     24 C         140.6097  139.9870  170.0972 C.3     1  UNL1        0.2373
     25 C         139.5412  140.4449  169.1490 C.3     1  UNL1        0.1894
     26 C         138.9107  139.4288  166.8425 C.3     1  UNL1        0.1743
     27 O         138.7788  139.4405  168.3366 O.3     1  UNL1       -0.3471
     28 C         139.0167  141.1719  157.4027 C.3     1  UNL1        0.0267
     29 C         137.6195  140.6499  157.2439 C.3     1  UNL1        0.0218
     30 C         136.7824  141.0896  156.0795 C.3     1  UNL1        0.0725
     31 N         137.3424  142.0514  155.0739 N.3     1  UNL1       -0.2697
     32 C         138.7397  142.5734  155.2326 C.3     1  UNL1        0.0725
     33 C         139.5768  142.1337  156.3970 C.3     1  UNL1        0.0218
     34 C         136.5052  142.4911  153.9095 C.3     1  UNL1        0.1172
     35 C         135.1913  142.0631  153.3262 C.3     1  UNL1        0.1606
     36 O         135.3213  143.1130  152.2629 O.3     1  UNL1       -0.3507
     37 C         136.6353  143.5410  152.8461 C.3     1  UNL1        0.1606
     38 C         138.8552  142.6489  160.0089 C.2     1  UNL1        0.2529
     39 O         139.2973  144.0034  159.5399 O.2     1  UNL1       -0.2815
@<TRIPOS>BOND
     1    26    27    1
     2    27    25    1
     3    25    24    1
     4    24    23    1
     5    23    15    1
     6    15    16   ar
     7    16    17   ar
     8    17     1    1
     9     1     2   am
    10     2     3    2
    11     2     4   am
    12     4     5    1
    13     5     6    1
    14     6     7    1
    15     7     8    1
    16     8     9   ar
    17     9    10   ar
    18    10    28    1
    19    28    29    1
    20    29    30    1
    21    30    31    1
    22    31    34    1
    23    34    35    1
    24    35    36    1
    25    36    37    1
    26    31    32    1
    27    32    33    1
    28    10    11   ar
    29    11    38    1
    30    38    39    2
    31    11    12   ar
    32    12    13   ar
    33    17    18   ar
    34    18    19   ar
    35    19    20   ar
    36    20    21    1
    37    21    22    3
    38    20    15   ar
    39    13     4    1
    40    13     8   ar
    41    33    28    1
    42    37    34    1
    43     1    14    1
@<TRIPOS>MOLECULE
*****
 39 43 0 0 0
SMALL
GASTEIGER

@<TRIPOS>ATOM
      1 N         140.1856  140.1048  157.2001 N.am    1  UNL1       -0.2531
      2 C         140.1084  140.4152  158.6656 C.2     1  UNL1        0.3135
      3 O         139.1808  141.4864  159.1576 O.2     1  UNL1       -0.2518
      4 N         140.9589  139.6544  159.6392 N.am    1  UNL1       -0.2282
      5 C         141.8866  138.5832  159.1473 C.3     1  UNL1        0.1015
      6 C         142.7371  137.8225  160.1209 C.3     1  UNL1        0.0268
      7 C         142.6599  138.1329  161.5864 C.3     1  UNL1        0.0310
      8 C         141.7323  139.2041  162.0783 C.ar    1  UNL1        0.0096
      9 C         141.6551  139.5145  163.5438 C.ar    1  UNL1       -0.0042
     10 C         140.7275  140.5857  164.0357 C.ar    1  UNL1       -0.0017
     11 CA        139.8769  141.3465  163.0621 C.ar    1  UNL1        0.1208
     12 N         139.9541  141.0361  161.5966 N.ar    1  UNL1       -0.2276
     13 C         140.8818  139.9648  161.1047 C.ar    1  UNL1        0.1345
     14 H         140.7944  139.4017  156.8773 H       1  UNL1        0.1578
     15 C         137.0503  141.2383  155.0472 C.ar    1  UNL1        0.1525
     16 C         137.9008  140.4775  156.0208 C.ar    1  UNL1        0.0721
     17 C         139.3351  140.8655  156.2266 C.ar    1  UNL1        0.1384
     18 N         139.9189  142.0142  155.4587 N.ar    1  UNL1       -0.2281
     19 C         139.0683  142.7750  154.4851 C.ar    1  UNL1        0.1136
     20 C         137.6341  142.3870  154.2794 C.ar    1  UNL1        0.1215
     21 C         136.7836  143.1478  153.3058 C.1     1  UNL1        0.1051
     22 N         135.9330  143.9085  152.3321 N.1     1  UNL1       -0.1907
     23 O         135.6161  140.8503  154.8415 O.3     1  UNL1       -0.4719
     24 C         134.7467  140.5377  156.0233 C.3     1  UNL1        0.2373
     25 C         133.2581  140.6912  155.9207 C.3     1  UNL1        0.1894
     26 C         130.9841  139.9280  156.9191 C.3     1  UNL1        0.1743
     27 O         132.3559  139.5973  156.4102 O.3     1  UNL1       -0.3471
     28 C         140.6503  140.8961  165.5012 C.3     1  UNL1        0.0267
     29 C         141.4014  142.0680  166.0602 C.3     1  UNL1        0.0218
     30 C         141.3242  142.3784  167.5257 C.3     1  UNL1        0.0725
     31 N         140.4960  141.5170  168.4322 N.3     1  UNL1       -0.2697
     32 C         139.7448  140.3450  167.8733 C.3     1  UNL1        0.0725
     33 C         139.8220  140.0346  166.4078 C.3     1  UNL1        0.0218
     34 C         140.4188  141.8274  169.8977 C.3     1  UNL1        0.1172
     35 C         140.9252  141.1728  171.1487 C.3     1  UNL1        0.1606
     36 O         140.3097  142.2664  171.9702 O.3     1  UNL1       -0.3507
     37 C         139.8032  142.9211  170.7193 C.3     1  UNL1        0.1606
     38 C         138.9493  142.4177  163.5540 C.2     1  UNL1        0.2529
     39 O         137.6080  142.0487  164.1152 O.2     1  UNL1       -0.2815
@<TRIPOS>BOND
     1    26    27    1
     2    27    25    1
     3    25    24    1
     4    24    23    1
     5    23    15    1
     6    15    16   ar
     7    16    17   ar
     8    17     1    1
     9     1     2   am
    10     2     3    2
    11     2     4   am
    12     4     5    1
    13     5     6    1
    14     6     7    1
    15     7     8    1
    16     8     9   ar
    17     9    10   ar
    18    10    28    1
    19    28    29    1
    20    29    30    1
    21    30    31    1
    22    31    34    1
    23    34    35    1
    24    35    36    1
    25    36    37    1
    26    31    32    1
    27    32    33    1
    28    10    11   ar
    29    11    38    1
    30    38    39    2
    31    11    12   ar
    32    12    13   ar
    33    17    18   ar
    34    18    19   ar
    35    19    20   ar
    36    20    21    1
    37    21    22    3
    38    20    15   ar
    39    13     4    1
    40    13     8   ar
    41    33    28    1
    42    37    34    1
    43     1    14    1
@<TRIPOS>MOLECULE
*****
 39 43 0 0 0
SMALL
GASTEIGER

@<TRIPOS>ATOM
      1 N         140.5578  139.9236  165.1788 N.am    1  UNL1       -0.2531
      2 C         140.5341  140.8835  164.0264 C.2     1  UNL1        0.3135
      3 O         140.4622  142.3599  164.2814 O.2     1  UNL1       -0.2518
      4 N         140.5822  140.3670  162.6189 N.am    1  UNL1       -0.2282
      5 C         140.6541  138.8906  162.3639 C.3     1  UNL1        0.1015
      6 C         140.7023  138.3741  160.9565 C.3     1  UNL1        0.0268
      7 C         140.6785  139.3340  159.8041 C.3     1  UNL1        0.0310
      8 C         140.6066  140.8104  160.0591 C.ar    1  UNL1        0.0096
      9 C         140.5829  141.7703  158.9067 C.ar    1  UNL1       -0.0042
     10 C         140.5110  143.2467  159.1617 C.ar    1  UNL1       -0.0017
     11 CA        140.4628  143.7632  160.5692 C.ar    1  UNL1        0.1208
     12 N         140.4866  142.8033  161.7216 N.ar    1  UNL1       -0.2276
     13 C         140.5585  141.3269  161.4665 C.ar    1  UNL1        0.1345
     14 H         140.6050  138.9546  165.0114 H       1  UNL1        0.1578
     15 C         139.6761  140.2185  169.0370 C.ar    1  UNL1        0.1525
     16 C         139.7243  139.7020  167.6296 C.ar    1  UNL1        0.0721
     17 C         140.5097  140.4401  166.5862 C.ar    1  UNL1        0.1384
     18 N         141.2469  141.6947  166.9504 N.ar    1  UNL1       -0.2281
     19 C         141.1987  142.2112  168.3579 C.ar    1  UNL1        0.1136
     20 C         140.4133  141.4731  169.4011 C.ar    1  UNL1        0.1215
     21 C         140.3652  141.9896  170.8086 C.1     1  UNL1        0.1051
     22 N         140.3170  142.5061  172.2161 N.1     1  UNL1       -0.1907
     23 O         138.8908  139.4804  170.0802 O.3     1  UNL1       -0.4719
     24 C         137.4593  139.8459  170.3396 C.3     1  UNL1        0.2373
     25 C         136.5655  138.8969  171.0816 C.3     1  UNL1        0.1894
     26 C         136.2684  136.8274  172.6240 C.3     1  UNL1        0.1743
     27 O         137.1588  137.7517  171.8476 O.3     1  UNL1       -0.3471
     28 C         140.4872  144.2066  158.0093 C.3     1  UNL1        0.0267
     29 C         141.7040  145.0228  157.6879 C.3     1  UNL1        0.0218
     30 C         141.6802  145.9827  156.5355 C.3     1  UNL1        0.0725
     31 N         140.4398  146.1264  155.7045 N.3     1  UNL1       -0.2697
     32 C         139.2230  145.3101  156.0259 C.3     1  UNL1        0.0725
     33 C         139.2467  144.3502  157.1783 C.3     1  UNL1        0.0218
     34 C         140.4160  147.0863  154.5521 C.3     1  UNL1        0.1172
     35 C         141.0031  147.1013  153.1718 C.3     1  UNL1        0.1606
     36 O         140.3824  148.4437  152.9223 O.3     1  UNL1       -0.3507
     37 C         139.7953  148.4289  154.3026 C.3     1  UNL1        0.1606
     38 C         140.3910  145.2396  160.8242 C.2     1  UNL1        0.2529
     39 O         139.2154  145.8182  161.5546 O.2     1  UNL1       -0.2815
@<TRIPOS>BOND
     1    26    27    1
     2    27    25    1
     3    25    24    1
     4    24    23    1
     5    23    15    1
     6    15    16   ar
     7    16    17   ar
     8    17     1    1
     9     1     2   am
    10     2     3    2
    11     2     4   am
    12     4     5    1
    13     5     6    1
    14     6     7    1
    15     7     8    1
    16     8     9   ar
    17     9    10   ar
    18    10    28    1
    19    28    29    1
    20    29    30    1
    21    30    31    1
    22    31    34    1
    23    34    35    1
    24    35    36    1
    25    36    37    1
    26    31    32    1
    27    32    33    1
    28    10    11   ar
    29    11    38    1
    30    38    39    2
    31    11    12   ar
    32    12    13   ar
    33    17    18   ar
    34    18    19   ar
    35    19    20   ar
    36    20    21    1
    37    21    22    3
    38    20    15   ar
    39    13     4    1
    40    13     8   ar
    41    33    28    1
    42    37    34    1
    43     1    14    1
