@<TRIPOS>MOLECULE
*****
 47 52 0 0 0
SMALL
GASTEIGER

@<TRIPOS>ATOM
      1 C         135.2480  141.4408  154.7377 C.ar    1  UNL1        0.1721
      2 C         136.2018  142.5972  154.6843 C.ar    1  UNL1        0.0360
      3 C         137.2329  142.7693  155.7600 C.ar    1  UNL1       -0.0119
      4 C         137.3101  141.7851  156.8892 C.ar    1  UNL1       -0.0000
      5 C         136.3563  140.6286  156.9427 C.ar    1  UNL1        0.0374
      6 C         135.3253  140.4565  155.8669 C.ar    1  UNL1        0.1718
      7 C         138.3412  141.9572  157.9650 C.3     1  UNL1        0.1245
      8 N         139.2950  143.1136  157.9115 N.am    1  UNL1       -0.2523
      9 C         139.2178  144.0980  156.7823 C.2     1  UNL1        0.2342
     10 O         140.1716  145.2544  156.7288 O.2     1  UNL1       -0.2742
     11 C         138.1867  143.9259  155.7065 C.3     1  UNL1        0.1118
     12 C         138.4185  140.9729  159.0942 C.ar    1  UNL1        0.0003
     13 C         139.1791  139.6916  158.9216 C.ar    1  UNL1       -0.0015
     14 C         139.2563  138.7073  160.0508 C.ar    1  UNL1        0.0111
     15 C         138.5730  139.0043  161.3527 C.ar    1  UNL1        0.0577
     16 CL        138.6503  138.0199  162.4819 Cl      1  UNL1       -0.0822
     17 C         137.8125  140.2856  161.5254 C.ar    1  UNL1        0.0111
     18 C         137.7352  141.2699  160.3961 C.ar    1  UNL1       -0.0015
     19 C         140.3261  143.2858  158.9873 C.ar    1  UNL1        0.0545
     20 C         140.0120  144.1068  160.2027 C.ar    1  UNL1        0.0162
     21 C         141.0431  144.2789  161.2785 C.ar    1  UNL1        0.0158
     22 C         142.3882  143.6301  161.1388 C.ar    1  UNL1        0.0480
     23 C         142.7023  142.8090  159.9234 C.ar    1  UNL1        0.0158
     24 C         141.6713  142.6369  158.8476 C.ar    1  UNL1        0.0162
     25 N         143.4193  143.8022  162.2146 N.pl3   1  UNL1       -0.3058
     26 C         144.8212  143.3165  161.9944 C.3     1  UNL1        0.1122
     27 C         143.0483  144.4601  163.5106 C.3     1  UNL1        0.0908
     28 C         142.6491  143.6228  164.6894 C.3     1  UNL1        0.0199
     29 C         143.7005  142.9569  165.5268 C.3     1  UNL1        0.0031
     30 C         143.3013  142.1196  166.7056 C.3     1  UNL1        0.0160
     31 C         141.8507  141.9483  167.0471 C.3     1  UNL1        0.0580
     32 C         140.7994  142.6142  166.2097 C.3     1  UNL1        0.0160
     33 C         141.1986  143.4515  165.0309 C.3     1  UNL1        0.0031
     34 N         141.4515  141.1110  168.2259 N.3     1  UNL1       -0.2649
     35 C         142.4921  140.3474  168.9903 C.3     1  UNL1        0.0939
     36 C         142.0929  139.5101  170.1691 C.3     1  UNL1        0.1068
     37 N         140.6532  139.4364  170.5835 N.am    1  UNL1       -0.3018
     38 C         139.6127  140.1999  169.8191 C.2     1  UNL1        0.2389
     39 O         138.1729  140.1262  170.2335 O.2     1  UNL1       -0.2736
     40 C         140.0119  141.0372  168.6403 C.3     1  UNL1        0.1584
     41 H         140.3911  138.8869  171.3572 H       1  UNL1        0.1495
     42 C         134.2571  142.1361  152.4389 C.3     1  UNL1        0.2526
     43 O         134.2169  141.2686  153.6619 O.3     1  UNL1       -0.4684
     44 O         134.3714  139.3000  155.9204 O.3     1  UNL1       -0.4761
     45 C         133.1532  139.3723  156.7925 C.3     1  UNL1        0.1663
     46 C         132.0139  140.2728  156.4163 C.3     1  UNL1        0.0472
     47 C         133.0741  138.5443  158.0407 C.3     1  UNL1        0.0472
@<TRIPOS>BOND
     1    42    43    1
     2    43     1    1
     3     1     2   ar
     4     2     3   ar
     5     3     4   ar
     6     4     5   ar
     7     5     6   ar
     8     6    44    1
     9    44    45    1
    10    45    46    1
    11    45    47    1
    12     4     7    1
    13     7    12    1
    14    12    13   ar
    15    13    14   ar
    16    14    15   ar
    17    15    16    1
    18    15    17   ar
    19    17    18   ar
    20     7     8    1
    21     8    19    1
    22    19    20   ar
    23    20    21   ar
    24    21    22   ar
    25    22    25    1
    26    25    26    1
    27    25    27    1
    28    28    27    1
    29    28    29    1
    30    29    30    1
    31    30    31    1
    32    31    34    1
    33    34    35    1
    34    35    36    1
    35    36    37    1
    36    37    38   am
    37    38    39    2
    38    38    40    1
    39    31    32    1
    40    32    33    1
    41    22    23   ar
    42    23    24   ar
    43     8     9   am
    44     9    10    2
    45     9    11    1
    46     6     1   ar
    47    18    12   ar
    48    24    19   ar
    49    11     3    1
    50    33    28    1
    51    40    34    1
    52    37    41    1
@<TRIPOS>MOLECULE
*****
 47 52 0 0 0
SMALL
GASTEIGER

@<TRIPOS>ATOM
      1 C         141.9918  135.9626  154.7626 C.ar    1  UNL1        0.1721
      2 C         140.7468  136.7947  154.6774 C.ar    1  UNL1        0.0360
      3 C         140.3729  137.7033  155.8108 C.ar    1  UNL1       -0.0119
      4 C         141.2441  137.7797  157.0295 C.ar    1  UNL1       -0.0000
      5 C         142.4891  136.9476  157.1147 C.ar    1  UNL1        0.0374
      6 C         142.8630  136.0390  155.9812 C.ar    1  UNL1        0.1718
      7 C         140.8702  138.6883  158.1630 C.3     1  UNL1        0.1245
      8 N         139.6251  139.5204  158.0778 N.am    1  UNL1       -0.2523
      9 C         138.7538  139.4440  156.8591 C.2     1  UNL1        0.2342
     10 O         137.5088  140.2761  156.7739 O.2     1  UNL1       -0.2742
     11 C         139.1277  138.5355  155.7256 C.3     1  UNL1        0.1118
     12 C         141.7413  138.7647  159.3816 C.ar    1  UNL1        0.0003
     13 C         141.4062  137.9496  160.5955 C.ar    1  UNL1       -0.0015
     14 C         142.2774  138.0260  161.8141 C.ar    1  UNL1        0.0111
     15 C         143.4837  138.9175  161.8190 C.ar    1  UNL1        0.0577
     16 CL        144.3549  138.9939  163.0378 Cl      1  UNL1       -0.0822
     17 C         143.8189  139.7325  160.6052 C.ar    1  UNL1        0.0111
     18 C         142.9477  139.6561  159.3865 C.ar    1  UNL1       -0.0015
     19 C         139.2512  140.4289  159.2112 C.ar    1  UNL1        0.0545
     20 C         139.8295  141.8109  159.2868 C.ar    1  UNL1        0.0162
     21 C         139.4556  142.7194  160.4203 C.ar    1  UNL1        0.0158
     22 C         138.5034  142.2460  161.4782 C.ar    1  UNL1        0.0480
     23 C         137.9251  140.8640  161.4026 C.ar    1  UNL1        0.0158
     24 C         138.2990  139.9555  160.2692 C.ar    1  UNL1        0.0162
     25 N         138.1295  143.1546  162.6116 N.pl3   1  UNL1       -0.3058
     26 C         138.2432  144.6415  162.4498 C.3     1  UNL1        0.1122
     27 C         137.6419  142.5762  163.9069 C.3     1  UNL1        0.0908
     28 C         138.6190  142.2473  164.9964 C.3     1  UNL1        0.0199
     29 C         138.7374  140.8383  165.4975 C.3     1  UNL1        0.0031
     30 C         139.7145  140.5094  166.5870 C.3     1  UNL1        0.0160
     31 C         140.5733  141.5895  167.1754 C.3     1  UNL1        0.0580
     32 C         140.4549  142.9983  166.6744 C.3     1  UNL1        0.0160
     33 C         139.4778  143.3272  165.5849 C.3     1  UNL1        0.0031
     34 N         141.5504  141.2605  168.2649 N.3     1  UNL1       -0.2649
     35 C         141.4297  139.9673  169.0154 C.3     1  UNL1        0.0939
     36 C         142.4069  139.6384  170.1049 C.3     1  UNL1        0.1068
     37 N         143.5047  140.6027  170.4439 N.am    1  UNL1       -0.3018
     38 C         143.6254  141.8959  169.6935 C.2     1  UNL1        0.2389
     39 O         144.7233  142.8602  170.0326 O.2     1  UNL1       -0.2736
     40 C         142.6483  142.2248  168.6040 C.3     1  UNL1        0.1584
     41 H         144.1461  140.3869  171.1590 H       1  UNL1        0.1495
     42 C         141.4756  133.9027  153.2659 C.3     1  UNL1        0.2526
     43 O         142.3657  135.0541  153.6291 O.3     1  UNL1       -0.4684
     44 O         144.1082  135.2069  156.0665 O.3     1  UNL1       -0.4761
     45 C         144.0466  133.8212  156.6375 C.3     1  UNL1        0.1663
     46 C         144.0338  133.6226  158.1243 C.3     1  UNL1        0.0472
     47 C         143.9977  132.6341  155.7219 C.3     1  UNL1        0.0472
@<TRIPOS>BOND
     1    42    43    1
     2    43     1    1
     3     1     2   ar
     4     2     3   ar
     5     3     4   ar
     6     4     5   ar
     7     5     6   ar
     8     6    44    1
     9    44    45    1
    10    45    46    1
    11    45    47    1
    12     4     7    1
    13     7    12    1
    14    12    13   ar
    15    13    14   ar
    16    14    15   ar
    17    15    16    1
    18    15    17   ar
    19    17    18   ar
    20     7     8    1
    21     8    19    1
    22    19    20   ar
    23    20    21   ar
    24    21    22   ar
    25    22    25    1
    26    25    26    1
    27    25    27    1
    28    28    27    1
    29    28    29    1
    30    29    30    1
    31    30    31    1
    32    31    34    1
    33    34    35    1
    34    35    36    1
    35    36    37    1
    36    37    38   am
    37    38    39    2
    38    38    40    1
    39    31    32    1
    40    32    33    1
    41    22    23   ar
    42    23    24   ar
    43     8     9   am
    44     9    10    2
    45     9    11    1
    46     6     1   ar
    47    18    12   ar
    48    24    19   ar
    49    11     3    1
    50    33    28    1
    51    40    34    1
    52    37    41    1
@<TRIPOS>MOLECULE
*****
 47 52 0 0 0
SMALL
GASTEIGER

@<TRIPOS>ATOM
      1 C         138.9722  140.1310  169.0403 C.ar    1  UNL1        0.1721
      2 C         138.5055  139.2045  167.9570 C.ar    1  UNL1        0.0360
      3 C         138.9583  139.4160  166.5427 C.ar    1  UNL1       -0.0119
      4 C         139.8777  140.5540  166.2117 C.ar    1  UNL1       -0.0000
      5 C         140.3444  141.4805  167.2951 C.ar    1  UNL1        0.0374
      6 C         139.8916  141.2690  168.7094 C.ar    1  UNL1        0.1718
      7 C         140.3305  140.7654  164.7974 C.3     1  UNL1        0.1245
      8 N         139.8638  139.8389  163.7140 N.am    1  UNL1       -0.2523
      9 C         138.9443  138.7008  164.0450 C.2     1  UNL1        0.2342
     10 O         138.4776  137.7743  162.9616 O.2     1  UNL1       -0.2742
     11 C         138.4916  138.4894  165.4593 C.3     1  UNL1        0.1118
     12 C         141.2499  141.9034  164.4664 C.ar    1  UNL1        0.0003
     13 C         142.7360  141.7031  164.5069 C.ar    1  UNL1       -0.0015
     14 C         143.6554  142.8411  164.1759 C.ar    1  UNL1        0.0111
     15 C         143.0888  144.1794  163.8045 C.ar    1  UNL1        0.0577
     16 CL        144.0083  145.3175  163.4735 Cl      1  UNL1       -0.0822
     17 C         141.6029  144.3798  163.7640 C.ar    1  UNL1        0.0111
     18 C         140.6833  143.2417  164.0950 C.ar    1  UNL1       -0.0015
     19 C         140.3165  140.0504  162.2997 C.ar    1  UNL1        0.0545
     20 C         141.5663  139.3847  161.8048 C.ar    1  UNL1        0.0162
     21 C         142.0191  139.5962  160.3905 C.ar    1  UNL1        0.0158
     22 C         141.2220  140.4733  159.4711 C.ar    1  UNL1        0.0480
     23 C         139.9722  141.1390  159.9659 C.ar    1  UNL1        0.0158
     24 C         139.5194  140.9275  161.3803 C.ar    1  UNL1        0.0162
     25 N         141.6748  140.6848  158.0567 N.pl3   1  UNL1       -0.3058
     26 C         142.7950  141.6379  157.7624 C.3     1  UNL1        0.1122
     27 C         141.0073  139.9431  156.9367 C.3     1  UNL1        0.0908
     28 C         141.3489  138.5051  156.6809 C.3     1  UNL1        0.0199
     29 C         142.6065  137.9199  157.2521 C.3     1  UNL1        0.0031
     30 C         142.9482  136.4819  156.9963 C.3     1  UNL1        0.0160
     31 C         142.0323  135.6291  156.1693 C.3     1  UNL1        0.0580
     32 C         140.7749  136.2143  155.5981 C.3     1  UNL1        0.0160
     33 C         140.4332  137.6523  155.8539 C.3     1  UNL1        0.0031
     34 N         142.3740  134.1911  155.9134 N.3     1  UNL1       -0.2649
     35 C         141.3360  133.2607  155.3593 C.3     1  UNL1        0.0939
     36 C         141.6777  131.8227  155.1035 C.3     1  UNL1        0.1068
     37 N         143.0574  131.3152  155.4018 N.am    1  UNL1       -0.3018
     38 C         144.0953  132.2455  155.9559 C.2     1  UNL1        0.2389
     39 O         145.4750  131.7380  156.2542 O.2     1  UNL1       -0.2736
     40 C         143.7536  133.6835  156.2117 C.3     1  UNL1        0.1584
     41 H         143.2817  130.3714  155.2339 H       1  UNL1        0.1495
     42 C         137.1692  139.3269  170.7292 C.3     1  UNL1        0.2526
     43 O         138.5195  139.9196  170.4547 O.3     1  UNL1       -0.4684
     44 O         140.3584  142.1956  169.7928 O.3     1  UNL1       -0.4761
     45 C         141.7221  142.0214  170.3927 C.3     1  UNL1        0.1663
     46 C         142.6564  143.1914  170.4838 C.3     1  UNL1        0.0472
     47 C         142.1515  140.6773  170.9016 C.3     1  UNL1        0.0472
@<TRIPOS>BOND
     1    42    43    1
     2    43     1    1
     3     1     2   ar
     4     2     3   ar
     5     3     4   ar
     6     4     5   ar
     7     5     6   ar
     8     6    44    1
     9    44    45    1
    10    45    46    1
    11    45    47    1
    12     4     7    1
    13     7    12    1
    14    12    13   ar
    15    13    14   ar
    16    14    15   ar
    17    15    16    1
    18    15    17   ar
    19    17    18   ar
    20     7     8    1
    21     8    19    1
    22    19    20   ar
    23    20    21   ar
    24    21    22   ar
    25    22    25    1
    26    25    26    1
    27    25    27    1
    28    28    27    1
    29    28    29    1
    30    29    30    1
    31    30    31    1
    32    31    34    1
    33    34    35    1
    34    35    36    1
    35    36    37    1
    36    37    38   am
    37    38    39    2
    38    38    40    1
    39    31    32    1
    40    32    33    1
    41    22    23   ar
    42    23    24   ar
    43     8     9   am
    44     9    10    2
    45     9    11    1
    46     6     1   ar
    47    18    12   ar
    48    24    19   ar
    49    11     3    1
    50    33    28    1
    51    40    34    1
    52    37    41    1
@<TRIPOS>MOLECULE
*****
 47 52 0 0 0
SMALL
GASTEIGER

@<TRIPOS>ATOM
      1 C         142.6685  140.2739  167.8939 C.ar    1  UNL1        0.1721
      2 C         142.8253  139.1893  166.8697 C.ar    1  UNL1        0.0360
      3 C         142.4897  139.4602  165.4330 C.ar    1  UNL1       -0.0119
      4 C         141.9972  140.8157  165.0206 C.ar    1  UNL1       -0.0000
      5 C         141.8404  141.9003  166.0448 C.ar    1  UNL1        0.0374
      6 C         142.1761  141.6293  167.4815 C.ar    1  UNL1        0.1718
      7 C         141.6616  141.0866  163.5840 C.3     1  UNL1        0.1245
      8 N         141.8184  140.0020  162.5597 N.am    1  UNL1       -0.2523
      9 C         142.3109  138.6465  162.9721 C.2     1  UNL1        0.2342
     10 O         142.4677  137.5619  161.9479 O.2     1  UNL1       -0.2742
     11 C         142.6465  138.3756  164.4088 C.3     1  UNL1        0.1118
     12 C         141.1691  142.4421  163.1715 C.ar    1  UNL1        0.0003
     13 C         142.1490  143.5121  162.7904 C.ar    1  UNL1       -0.0015
     14 C         141.6565  144.8675  162.3780 C.ar    1  UNL1        0.0111
     15 C         140.1843  145.1531  162.3467 C.ar    1  UNL1        0.0577
     16 CL        139.6919  146.5087  161.9342 Cl      1  UNL1       -0.0822
     17 C         139.2045  144.0832  162.7278 C.ar    1  UNL1        0.0111
     18 C         139.6969  142.7277  163.1402 C.ar    1  UNL1       -0.0015
     19 C         141.4827  140.2730  161.1231 C.ar    1  UNL1        0.0545
     20 C         140.1084  139.9702  160.6040 C.ar    1  UNL1        0.0162
     21 C         139.7728  140.2411  159.1673 C.ar    1  UNL1        0.0158
     22 C         140.8115  140.8148  158.2498 C.ar    1  UNL1        0.0480
     23 C         142.1859  141.1176  158.7689 C.ar    1  UNL1        0.0158
     24 C         142.5215  140.8467  160.2055 C.ar    1  UNL1        0.0162
     25 N         140.4758  141.0857  156.8131 N.pl3   1  UNL1       -0.3058
     26 C         139.3933  142.0649  156.4676 C.3     1  UNL1        0.1122
     27 C         141.2227  140.3774  155.7220 C.3     1  UNL1        0.0908
     28 C         141.5629  138.9237  155.8675 C.3     1  UNL1        0.0199
     29 C         142.9968  138.4961  155.9746 C.3     1  UNL1        0.0031
     30 C         143.3370  137.0425  156.1201 C.3     1  UNL1        0.0160
     31 C         142.2434  136.0165  156.1585 C.3     1  UNL1        0.0580
     32 C         140.8097  136.4441  156.0514 C.3     1  UNL1        0.0160
     33 C         140.4695  137.8977  155.9059 C.3     1  UNL1        0.0031
     34 N         142.5837  134.5628  156.3040 N.3     1  UNL1       -0.2649
     35 C         141.7552  133.5251  155.6062 C.3     1  UNL1        0.0939
     36 C         142.0954  132.0715  155.7517 C.3     1  UNL1        0.1068
     37 N         143.2641  131.6555  156.5950 N.am    1  UNL1       -0.3018
     38 C         144.0926  132.6932  157.2928 C.2     1  UNL1        0.2389
     39 O         145.2613  132.2773  158.1361 O.2     1  UNL1       -0.2736
     40 C         143.7523  134.1468  157.1473 C.3     1  UNL1        0.1584
     41 H         143.4875  130.7015  156.6905 H       1  UNL1        0.1495
     42 C         142.5804  138.7137  169.9695 C.3     1  UNL1        0.2526
     43 O         143.0042  140.0029  169.3305 O.3     1  UNL1       -0.4684
     44 O         142.0193  142.7140  168.5057 O.3     1  UNL1       -0.4761
     45 C         140.7503  142.8191  169.2986 C.3     1  UNL1        0.1663
     46 C         139.8729  141.6149  169.4729 C.3     1  UNL1        0.0472
     47 C         140.3586  144.1283  169.9171 C.3     1  UNL1        0.0472
@<TRIPOS>BOND
     1    42    43    1
     2    43     1    1
     3     1     2   ar
     4     2     3   ar
     5     3     4   ar
     6     4     5   ar
     7     5     6   ar
     8     6    44    1
     9    44    45    1
    10    45    46    1
    11    45    47    1
    12     4     7    1
    13     7    12    1
    14    12    13   ar
    15    13    14   ar
    16    14    15   ar
    17    15    16    1
    18    15    17   ar
    19    17    18   ar
    20     7     8    1
    21     8    19    1
    22    19    20   ar
    23    20    21   ar
    24    21    22   ar
    25    22    25    1
    26    25    26    1
    27    25    27    1
    28    28    27    1
    29    28    29    1
    30    29    30    1
    31    30    31    1
    32    31    34    1
    33    34    35    1
    34    35    36    1
    35    36    37    1
    36    37    38   am
    37    38    39    2
    38    38    40    1
    39    31    32    1
    40    32    33    1
    41    22    23   ar
    42    23    24   ar
    43     8     9   am
    44     9    10    2
    45     9    11    1
    46     6     1   ar
    47    18    12   ar
    48    24    19   ar
    49    11     3    1
    50    33    28    1
    51    40    34    1
    52    37    41    1
@<TRIPOS>MOLECULE
*****
 47 52 0 0 0
SMALL
GASTEIGER

@<TRIPOS>ATOM
      1 C         139.9781  147.3434  154.9581 C.ar    1  UNL1        0.1721
      2 C         141.1133  146.3966  154.7038 C.ar    1  UNL1        0.0360
      3 C         141.5331  145.4260  155.7677 C.ar    1  UNL1       -0.0119
      4 C         140.8177  145.4023  157.0858 C.ar    1  UNL1       -0.0000
      5 C         139.6824  146.3491  157.3401 C.ar    1  UNL1        0.0374
      6 C         139.2626  147.3197  156.2762 C.ar    1  UNL1        0.1718
      7 C         141.2375  144.4318  158.1497 C.3     1  UNL1        0.1245
      8 N         142.3727  143.4849  157.8955 N.am    1  UNL1       -0.2523
      9 C         143.0882  143.5086  156.5773 C.2     1  UNL1        0.2342
     10 O         144.2235  142.5618  156.3230 O.2     1  UNL1       -0.2742
     11 C         142.6684  144.4792  155.5134 C.3     1  UNL1        0.1118
     12 C         140.5220  144.4081  159.4678 C.ar    1  UNL1        0.0003
     13 C         140.8163  145.4561  160.4999 C.ar    1  UNL1       -0.0015
     14 C         140.1008  145.4324  161.8180 C.ar    1  UNL1        0.0111
     15 C         139.0911  144.3607  162.1042 C.ar    1  UNL1        0.0577
     16 CL        138.3756  144.3370  163.4224 Cl      1  UNL1       -0.0822
     17 C         138.7968  143.3127  161.0722 C.ar    1  UNL1        0.0111
     18 C         139.5123  143.3363  159.7540 C.ar    1  UNL1       -0.0015
     19 C         142.7925  142.5144  158.9593 C.ar    1  UNL1        0.0545
     20 C         142.2605  141.1120  158.9474 C.ar    1  UNL1        0.0162
     21 C         142.6803  140.1415  160.0112 C.ar    1  UNL1        0.0158
     22 C         143.6321  140.5733  161.0871 C.ar    1  UNL1        0.0480
     23 C         144.1642  141.9758  161.0991 C.ar    1  UNL1        0.0158
     24 C         143.7444  142.9463  160.0352 C.ar    1  UNL1        0.0162
     25 N         144.0519  139.6028  162.1510 N.pl3   1  UNL1       -0.3058
     26 C         143.8627  138.1299  161.9394 C.3     1  UNL1        0.1122
     27 C         144.6608  140.1052  163.4265 C.3     1  UNL1        0.0908
     28 C         143.7857  140.4115  164.6056 C.3     1  UNL1        0.0199
     29 C         143.3659  139.3106  165.5341 C.3     1  UNL1        0.0031
     30 C         142.4908  139.6169  166.7132 C.3     1  UNL1        0.0160
     31 C         142.0355  141.0240  166.9639 C.3     1  UNL1        0.0580
     32 C         142.4553  142.1248  166.0355 C.3     1  UNL1        0.0160
     33 C         143.3304  141.8185  164.8563 C.3     1  UNL1        0.0031
     34 N         141.1604  141.3303  168.1431 N.3     1  UNL1       -0.2649
     35 C         140.3910  140.2300  168.8120 C.3     1  UNL1        0.0939
     36 C         139.5159  140.5362  169.9911 C.3     1  UNL1        0.1068
     37 N         139.4102  141.9429  170.5014 N.am    1  UNL1       -0.3018
     38 C         140.1796  143.0431  169.8325 C.2     1  UNL1        0.2389
     39 O         140.0739  144.4498  170.3428 O.2     1  UNL1       -0.2736
     40 C         141.0547  142.7368  168.6533 C.3     1  UNL1        0.1584
     41 H         138.8359  142.1439  171.2753 H       1  UNL1        0.1495
     42 C         140.5918  148.9697  153.0272 C.3     1  UNL1        0.2526
     43 O         139.5583  148.3139  153.8942 O.3     1  UNL1       -0.4684
     44 O         138.1273  148.2665  156.5305 O.3     1  UNL1       -0.4761
     45 C         138.3922  149.6049  157.1538 C.3     1  UNL1        0.1663
     46 C         138.9271  150.7293  156.3172 C.3     1  UNL1        0.0472
     47 C         138.1223  149.8190  158.6137 C.3     1  UNL1        0.0472
@<TRIPOS>BOND
     1    42    43    1
     2    43     1    1
     3     1     2   ar
     4     2     3   ar
     5     3     4   ar
     6     4     5   ar
     7     5     6   ar
     8     6    44    1
     9    44    45    1
    10    45    46    1
    11    45    47    1
    12     4     7    1
    13     7    12    1
    14    12    13   ar
    15    13    14   ar
    16    14    15   ar
    17    15    16    1
    18    15    17   ar
    19    17    18   ar
    20     7     8    1
    21     8    19    1
    22    19    20   ar
    23    20    21   ar
    24    21    22   ar
    25    22    25    1
    26    25    26    1
    27    25    27    1
    28    28    27    1
    29    28    29    1
    30    29    30    1
    31    30    31    1
    32    31    34    1
    33    34    35    1
    34    35    36    1
    35    36    37    1
    36    37    38   am
    37    38    39    2
    38    38    40    1
    39    31    32    1
    40    32    33    1
    41    22    23   ar
    42    23    24   ar
    43     8     9   am
    44     9    10    2
    45     9    11    1
    46     6     1   ar
    47    18    12   ar
    48    24    19   ar
    49    11     3    1
    50    33    28    1
    51    40    34    1
    52    37    41    1
@<TRIPOS>MOLECULE
*****
 47 52 0 0 0
SMALL
GASTEIGER

@<TRIPOS>ATOM
      1 C         139.2921  139.8892  168.9333 C.ar    1  UNL1        0.1721
      2 C         138.4449  139.3364  167.8259 C.ar    1  UNL1        0.0360
      3 C         138.9777  139.2925  166.4244 C.ar    1  UNL1       -0.0119
      4 C         140.3577  139.8014  166.1303 C.ar    1  UNL1       -0.0000
      5 C         141.2049  140.3543  167.2378 C.ar    1  UNL1        0.0374
      6 C         140.6722  140.3982  168.6393 C.ar    1  UNL1        0.1718
      7 C         140.8904  139.7575  164.7288 C.3     1  UNL1        0.1245
      8 N         140.0432  139.2047  163.6214 N.am    1  UNL1       -0.2523
      9 C         138.6631  138.6958  163.9154 C.2     1  UNL1        0.2342
     10 O         137.8159  138.1430  162.8079 O.2     1  UNL1       -0.2742
     11 C         138.1303  138.7397  165.3169 C.3     1  UNL1        0.1118
     12 C         142.2705  140.2665  164.4348 C.ar    1  UNL1        0.0003
     13 C         142.4651  141.6774  163.9642 C.ar    1  UNL1       -0.0015
     14 C         143.8451  142.1864  163.6701 C.ar    1  UNL1        0.0111
     15 C         145.0305  141.2844  163.8466 C.ar    1  UNL1        0.0577
     16 CL        146.4106  141.7934  163.5526 Cl      1  UNL1       -0.0822
     17 C         144.8360  139.8735  164.3172 C.ar    1  UNL1        0.0111
     18 C         143.4559  139.3645  164.6113 C.ar    1  UNL1       -0.0015
     19 C         140.5760  139.1608  162.2198 C.ar    1  UNL1        0.0545
     20 C         140.2158  140.2436  161.2463 C.ar    1  UNL1        0.0162
     21 C         140.7485  140.1997  159.8448 C.ar    1  UNL1        0.0158
     22 C         141.6415  139.0731  159.4168 C.ar    1  UNL1        0.0480
     23 C         142.0017  137.9902  160.3904 C.ar    1  UNL1        0.0158
     24 C         141.4690  138.0341  161.7919 C.ar    1  UNL1        0.0162
     25 N         142.1743  139.0292  158.0153 N.pl3   1  UNL1       -0.3058
     26 C         143.4445  139.7497  157.6729 C.3     1  UNL1        0.1122
     27 C         141.4367  138.2647  156.9562 C.3     1  UNL1        0.0908
     28 C         141.9222  136.9097  156.5340 C.3     1  UNL1        0.0199
     29 C         143.1136  136.2962  157.2081 C.3     1  UNL1        0.0031
     30 C         143.5991  134.9412  156.7859 C.3     1  UNL1        0.0160
     31 C         142.8932  134.1996  155.6896 C.3     1  UNL1        0.0580
     32 C         141.7019  134.8131  155.0156 C.3     1  UNL1        0.0160
     33 C         141.2164  136.1681  155.4378 C.3     1  UNL1        0.0031
     34 N         143.3787  132.8446  155.2674 N.3     1  UNL1       -0.2649
     35 C         144.3503  132.0940  156.1292 C.3     1  UNL1        0.0939
     36 C         144.8358  130.7390  155.7070 C.3     1  UNL1        0.1068
     37 N         144.3497  130.1346  154.4230 N.am    1  UNL1       -0.3018
     38 C         143.3782  130.8853  153.5613 C.2     1  UNL1        0.2389
     39 O         142.8921  130.2809  152.2773 O.2     1  UNL1       -0.2736
     40 C         142.8927  132.2403  153.9835 C.3     1  UNL1        0.1584
     41 H         144.6683  129.2453  154.1459 H       1  UNL1        0.1495
     42 C         137.3502  139.5026  170.6154 C.3     1  UNL1        0.2526
     43 O         138.7594  139.9331  170.3349 O.3     1  UNL1       -0.4684
     44 O         141.5195  140.9510  169.7468 O.3     1  UNL1       -0.4761
     45 C         141.6655  142.4349  169.9102 C.3     1  UNL1        0.1663
     46 C         142.9681  143.0134  170.3779 C.3     1  UNL1        0.0472
     47 C         140.5089  143.3403  169.6059 C.3     1  UNL1        0.0472
@<TRIPOS>BOND
     1    42    43    1
     2    43     1    1
     3     1     2   ar
     4     2     3   ar
     5     3     4   ar
     6     4     5   ar
     7     5     6   ar
     8     6    44    1
     9    44    45    1
    10    45    46    1
    11    45    47    1
    12     4     7    1
    13     7    12    1
    14    12    13   ar
    15    13    14   ar
    16    14    15   ar
    17    15    16    1
    18    15    17   ar
    19    17    18   ar
    20     7     8    1
    21     8    19    1
    22    19    20   ar
    23    20    21   ar
    24    21    22   ar
    25    22    25    1
    26    25    26    1
    27    25    27    1
    28    28    27    1
    29    28    29    1
    30    29    30    1
    31    30    31    1
    32    31    34    1
    33    34    35    1
    34    35    36    1
    35    36    37    1
    36    37    38   am
    37    38    39    2
    38    38    40    1
    39    31    32    1
    40    32    33    1
    41    22    23   ar
    42    23    24   ar
    43     8     9   am
    44     9    10    2
    45     9    11    1
    46     6     1   ar
    47    18    12   ar
    48    24    19   ar
    49    11     3    1
    50    33    28    1
    51    40    34    1
    52    37    41    1
@<TRIPOS>MOLECULE
*****
 47 52 0 0 0
SMALL
GASTEIGER

@<TRIPOS>ATOM
      1 C         140.7572  142.8599  167.7947 C.ar    1  UNL1        0.1721
      2 C         139.7483  143.5009  166.8886 C.ar    1  UNL1        0.0360
      3 C         139.6742  143.0992  165.4453 C.ar    1  UNL1       -0.0119
      4 C         140.6091  142.0565  164.9080 C.ar    1  UNL1       -0.0000
      5 C         141.6181  141.4155  165.8141 C.ar    1  UNL1        0.0374
      6 C         141.6922  141.8172  167.2574 C.ar    1  UNL1        0.1718
      7 C         140.5350  141.6548  163.4647 C.3     1  UNL1        0.1245
      8 N         139.5261  142.2958  162.5587 N.am    1  UNL1       -0.2523
      9 C         138.5911  143.3386  163.0959 C.2     1  UNL1        0.2342
     10 O         137.5821  143.9796  162.1898 O.2     1  UNL1       -0.2742
     11 C         138.6651  143.7403  164.5392 C.3     1  UNL1        0.1118
     12 C         141.4700  140.6121  162.9275 C.ar    1  UNL1        0.0003
     13 C         141.0868  139.1628  162.9795 C.ar    1  UNL1       -0.0015
     14 C         142.0217  138.1201  162.4423 C.ar    1  UNL1        0.0111
     15 C         143.3398  138.5266  161.8530 C.ar    1  UNL1        0.0577
     16 CL        144.2747  137.4839  161.3157 Cl      1  UNL1       -0.0822
     17 C         143.7230  139.9759  161.8009 C.ar    1  UNL1        0.0111
     18 C         142.7881  141.0187  162.3382 C.ar    1  UNL1       -0.0015
     19 C         139.4520  141.8942  161.1153 C.ar    1  UNL1        0.0545
     20 C         140.2525  142.6379  160.0878 C.ar    1  UNL1        0.0162
     21 C         140.1785  142.2362  158.6445 C.ar    1  UNL1        0.0158
     22 C         139.3039  141.0908  158.2287 C.ar    1  UNL1        0.0480
     23 C         138.5033  140.3469  159.2563 C.ar    1  UNL1        0.0158
     24 C         138.5773  140.7486  160.6996 C.ar    1  UNL1        0.0162
     25 N         139.2298  140.6891  156.7854 N.pl3   1  UNL1       -0.3058
     26 C         137.9108  140.6976  156.0712 C.3     1  UNL1        0.1122
     27 C         140.4748  140.2788  156.0562 C.3     1  UNL1        0.0908
     28 C         140.9666  138.8647  156.1486 C.3     1  UNL1        0.0199
     29 C         140.5663  137.8619  155.1073 C.3     1  UNL1        0.0031
     30 C         141.0580  136.4478  155.1997 C.3     1  UNL1        0.0160
     31 C         141.9501  136.0365  156.3334 C.3     1  UNL1        0.0580
     32 C         142.3503  137.0393  157.3746 C.3     1  UNL1        0.0160
     33 C         141.8586  138.4534  157.2822 C.3     1  UNL1        0.0031
     34 N         142.4418  134.6224  156.4258 N.3     1  UNL1       -0.2649
     35 C         141.7340  133.5319  155.6776 C.3     1  UNL1        0.0939
     36 C         142.2257  132.1178  155.7700 C.3     1  UNL1        0.1068
     37 N         143.4253  131.7943  156.6106 N.am    1  UNL1       -0.3018
     38 C         144.1330  132.8848  157.3588 C.2     1  UNL1        0.2389
     39 O         145.3325  132.5613  158.1993 O.2     1  UNL1       -0.2736
     40 C         143.6413  134.2989  157.2664 C.3     1  UNL1        0.1584
     41 H         143.7480  130.8661  156.6713 H       1  UNL1        0.1495
     42 C         140.1180  142.4515  170.2795 C.3     1  UNL1        0.2526
     43 O         140.8313  143.2616  169.2380 O.3     1  UNL1       -0.4684
     44 O         142.7012  141.1761  168.1635 O.3     1  UNL1       -0.4761
     45 C         142.6693  139.6940  168.3921 C.3     1  UNL1        0.1663
     46 C         142.2105  139.1483  169.7119 C.3     1  UNL1        0.0472
     47 C         143.0962  138.7575  167.3008 C.3     1  UNL1        0.0472
@<TRIPOS>BOND
     1    42    43    1
     2    43     1    1
     3     1     2   ar
     4     2     3   ar
     5     3     4   ar
     6     4     5   ar
     7     5     6   ar
     8     6    44    1
     9    44    45    1
    10    45    46    1
    11    45    47    1
    12     4     7    1
    13     7    12    1
    14    12    13   ar
    15    13    14   ar
    16    14    15   ar
    17    15    16    1
    18    15    17   ar
    19    17    18   ar
    20     7     8    1
    21     8    19    1
    22    19    20   ar
    23    20    21   ar
    24    21    22   ar
    25    22    25    1
    26    25    26    1
    27    25    27    1
    28    28    27    1
    29    28    29    1
    30    29    30    1
    31    30    31    1
    32    31    34    1
    33    34    35    1
    34    35    36    1
    35    36    37    1
    36    37    38   am
    37    38    39    2
    38    38    40    1
    39    31    32    1
    40    32    33    1
    41    22    23   ar
    42    23    24   ar
    43     8     9   am
    44     9    10    2
    45     9    11    1
    46     6     1   ar
    47    18    12   ar
    48    24    19   ar
    49    11     3    1
    50    33    28    1
    51    40    34    1
    52    37    41    1
@<TRIPOS>MOLECULE
*****
 47 52 0 0 0
SMALL
GASTEIGER

@<TRIPOS>ATOM
      1 C         142.9631  141.7430  168.1268 C.ar    1  UNL1        0.1721
      2 C         143.6886  142.6385  167.1669 C.ar    1  UNL1        0.0360
      3 C         143.3533  142.5997  165.7053 C.ar    1  UNL1       -0.0119
      4 C         142.2925  141.6654  165.2038 C.ar    1  UNL1       -0.0000
      5 C         141.5670  140.7698  166.1637 C.ar    1  UNL1        0.0374
      6 C         141.9023  140.8086  167.6253 C.ar    1  UNL1        0.1718
      7 C         141.9572  141.6266  163.7422 C.3     1  UNL1        0.1245
      8 N         142.6827  142.5221  162.7823 N.am    1  UNL1       -0.2523
      9 C         143.7436  143.4565  163.2838 C.2     1  UNL1        0.2342
     10 O         144.4692  144.3521  162.3239 O.2     1  UNL1       -0.2742
     11 C         144.0789  143.4953  164.7454 C.3     1  UNL1        0.1118
     12 C         140.8964  140.6923  163.2407 C.ar    1  UNL1        0.0003
     13 C         141.2731  139.3295  162.7394 C.ar    1  UNL1       -0.0015
     14 C         140.2122  138.3952  162.2379 C.ar    1  UNL1        0.0111
     15 C         138.7747  138.8235  162.2375 C.ar    1  UNL1        0.0577
     16 CL        137.7138  137.8891  161.7359 Cl      1  UNL1       -0.0822
     17 C         138.3980  140.1862  162.7387 C.ar    1  UNL1        0.0111
     18 C         139.4588  141.1206  163.2403 C.ar    1  UNL1       -0.0015
     19 C         142.3474  142.4833  161.3208 C.ar    1  UNL1        0.0545
     20 C         141.2083  143.3026  160.7906 C.ar    1  UNL1        0.0162
     21 C         140.8730  143.2638  159.3291 C.ar    1  UNL1        0.0158
     22 C         141.6768  142.4058  158.3977 C.ar    1  UNL1        0.0480
     23 C         142.8161  141.5864  158.9278 C.ar    1  UNL1        0.0158
     24 C         143.1514  141.6252  160.3893 C.ar    1  UNL1        0.0162
     25 N         141.3415  142.3670  156.9362 N.pl3   1  UNL1       -0.3058
     26 C         141.9617  143.3593  155.9978 C.3     1  UNL1        0.1122
     27 C         140.3860  141.3358  156.4130 C.3     1  UNL1        0.0908
     28 C         140.7840  139.8898  156.3859 C.3     1  UNL1        0.0199
     29 C         142.1943  139.5062  156.0481 C.3     1  UNL1        0.0031
     30 C         142.5922  138.0603  156.0209 C.3     1  UNL1        0.0160
     31 C         141.5799  136.9978  156.3317 C.3     1  UNL1        0.0580
     32 C         140.1697  137.3814  156.6695 C.3     1  UNL1        0.0160
     33 C         139.7717  138.8273  156.6966 C.3     1  UNL1        0.0031
     34 N         141.9779  135.5518  156.3046 N.3     1  UNL1       -0.2649
     35 C         141.2641  134.5944  155.3969 C.3     1  UNL1        0.0939
     36 C         141.6620  133.1484  155.3698 C.3     1  UNL1        0.1068
     37 N         142.7738  132.6598  156.2503 N.am    1  UNL1       -0.3018
     38 C         143.4876  133.6173  157.1580 C.2     1  UNL1        0.2389
     39 O         144.5994  133.1287  158.0386 O.2     1  UNL1       -0.2736
     40 C         143.0896  135.0633  157.1851 C.3     1  UNL1        0.1584
     41 H         143.0350  131.7108  156.2326 H       1  UNL1        0.1495
     42 C         142.6890  142.8311  170.4700 C.3     1  UNL1        0.2526
     43 O         143.2984  141.7817  169.5884 O.3     1  UNL1       -0.4684
     44 O         141.1767  139.9130  168.5852 O.3     1  UNL1       -0.4761
     45 C         139.6868  140.0148  168.7260 C.3     1  UNL1        0.1663
     46 C         139.0892  140.5977  169.9723 C.3     1  UNL1        0.0472
     47 C         138.7944  139.5336  167.6204 C.3     1  UNL1        0.0472
@<TRIPOS>BOND
     1    42    43    1
     2    43     1    1
     3     1     2   ar
     4     2     3   ar
     5     3     4   ar
     6     4     5   ar
     7     5     6   ar
     8     6    44    1
     9    44    45    1
    10    45    46    1
    11    45    47    1
    12     4     7    1
    13     7    12    1
    14    12    13   ar
    15    13    14   ar
    16    14    15   ar
    17    15    16    1
    18    15    17   ar
    19    17    18   ar
    20     7     8    1
    21     8    19    1
    22    19    20   ar
    23    20    21   ar
    24    21    22   ar
    25    22    25    1
    26    25    26    1
    27    25    27    1
    28    28    27    1
    29    28    29    1
    30    29    30    1
    31    30    31    1
    32    31    34    1
    33    34    35    1
    34    35    36    1
    35    36    37    1
    36    37    38   am
    37    38    39    2
    38    38    40    1
    39    31    32    1
    40    32    33    1
    41    22    23   ar
    42    23    24   ar
    43     8     9   am
    44     9    10    2
    45     9    11    1
    46     6     1   ar
    47    18    12   ar
    48    24    19   ar
    49    11     3    1
    50    33    28    1
    51    40    34    1
    52    37    41    1
@<TRIPOS>MOLECULE
*****
 47 52 0 0 0
SMALL
GASTEIGER

@<TRIPOS>ATOM
      1 C         136.6301  140.2255  154.6189 C.ar    1  UNL1        0.1721
      2 C         138.0124  139.6479  154.5440 C.ar    1  UNL1        0.0360
      3 C         138.9384  139.7640  155.7183 C.ar    1  UNL1       -0.0119
      4 C         138.4822  140.4577  156.9675 C.ar    1  UNL1       -0.0000
      5 C         137.1000  141.0353  157.0424 C.ar    1  UNL1        0.0374
      6 C         136.1739  140.9192  155.8681 C.ar    1  UNL1        0.1718
      7 C         139.4083  140.5737  158.1418 C.3     1  UNL1        0.1245
      8 N         140.7905  139.9961  158.0669 N.am    1  UNL1       -0.2523
      9 C         141.2468  139.3024  156.8176 C.2     1  UNL1        0.2342
     10 O         142.6291  138.7247  156.7427 O.2     1  UNL1       -0.2742
     11 C         140.3208  139.1863  155.6433 C.3     1  UNL1        0.1118
     12 C         138.9520  141.2674  159.3910 C.ar    1  UNL1        0.0003
     13 C         138.1863  140.5080  160.4336 C.ar    1  UNL1       -0.0015
     14 C         137.7301  141.2017  161.6829 C.ar    1  UNL1        0.0111
     15 C         138.0396  142.6548  161.8895 C.ar    1  UNL1        0.0577
     16 CL        137.5833  143.3485  163.1388 Cl      1  UNL1       -0.0822
     17 C         138.8053  143.4142  160.8470 C.ar    1  UNL1        0.0111
     18 C         139.2615  142.7205  159.5977 C.ar    1  UNL1       -0.0015
     19 C         141.7166  140.1122  159.2411 C.ar    1  UNL1        0.0545
     20 C         142.6840  141.2555  159.3232 C.ar    1  UNL1        0.0162
     21 C         143.6101  141.3716  160.4975 C.ar    1  UNL1        0.0158
     22 C         143.5686  140.3443  161.5897 C.ar    1  UNL1        0.0480
     23 C         142.6011  139.2010  161.5077 C.ar    1  UNL1        0.0158
     24 C         141.6751  139.0849  160.3334 C.ar    1  UNL1        0.0162
     25 N         144.4947  140.4604  162.7640 N.pl3   1  UNL1       -0.3058
     26 C         145.5671  141.5091  162.7727 C.3     1  UNL1        0.1122
     27 C         144.3483  139.5277  163.9297 C.3     1  UNL1        0.0908
     28 C         143.6710  139.9952  165.1838 C.3     1  UNL1        0.0199
     29 C         143.2151  138.9972  166.2067 C.3     1  UNL1        0.0031
     30 C         142.5378  139.4647  167.4608 C.3     1  UNL1        0.0160
     31 C         142.3164  140.9302  167.6920 C.3     1  UNL1        0.0580
     32 C         142.7723  141.9281  166.6691 C.3     1  UNL1        0.0160
     33 C         143.4496  141.4606  165.4150 C.3     1  UNL1        0.0031
     34 N         141.6391  141.3977  168.9460 N.3     1  UNL1       -0.2649
     35 C         141.4912  140.4645  170.1111 C.3     1  UNL1        0.0939
     36 C         140.8139  140.9320  171.3652 C.3     1  UNL1        0.1068
     37 N         140.2845  142.3327  171.4542 N.am    1  UNL1       -0.3018
     38 C         140.4325  143.2658  170.2892 C.2     1  UNL1        0.2389
     39 O         139.9031  144.6666  170.3782 O.2     1  UNL1       -0.2736
     40 C         141.1098  142.7983  169.0351 C.3     1  UNL1        0.1584
     41 H         139.8400  142.6396  172.2773 H       1  UNL1        0.1495
     42 C         136.1888  139.4947  152.1651 C.3     1  UNL1        0.2526
     43 O         135.7041  140.1094  153.4446 O.3     1  UNL1       -0.4684
     44 O         134.7916  141.4969  155.9431 O.3     1  UNL1       -0.4761
     45 C         133.6011  140.5869  156.0103 C.3     1  UNL1        0.1663
     46 C         132.2365  141.1109  155.6736 C.3     1  UNL1        0.0472
     47 C         133.7751  139.1528  156.4143 C.3     1  UNL1        0.0472
@<TRIPOS>BOND
     1    42    43    1
     2    43     1    1
     3     1     2   ar
     4     2     3   ar
     5     3     4   ar
     6     4     5   ar
     7     5     6   ar
     8     6    44    1
     9    44    45    1
    10    45    46    1
    11    45    47    1
    12     4     7    1
    13     7    12    1
    14    12    13   ar
    15    13    14   ar
    16    14    15   ar
    17    15    16    1
    18    15    17   ar
    19    17    18   ar
    20     7     8    1
    21     8    19    1
    22    19    20   ar
    23    20    21   ar
    24    21    22   ar
    25    22    25    1
    26    25    26    1
    27    25    27    1
    28    28    27    1
    29    28    29    1
    30    29    30    1
    31    30    31    1
    32    31    34    1
    33    34    35    1
    34    35    36    1
    35    36    37    1
    36    37    38   am
    37    38    39    2
    38    38    40    1
    39    31    32    1
    40    32    33    1
    41    22    23   ar
    42    23    24   ar
    43     8     9   am
    44     9    10    2
    45     9    11    1
    46     6     1   ar
    47    18    12   ar
    48    24    19   ar
    49    11     3    1
    50    33    28    1
    51    40    34    1
    52    37    41    1
