@<TRIPOS>MOLECULE
*****
 20 21 0 0 0
SMALL
GASTEIGER

@<TRIPOS>ATOM
      1 C         139.7218  138.3943  164.6139 C.ar    1  UNL1        0.0287
      2 C         138.4606  138.0500  165.3493 C.ar    1  UNL1        0.0297
      3 C         138.2062  138.6239  166.7116 C.ar    1  UNL1        0.1401
      4 F         136.9448  138.2796  167.4469 F       1  UNL1       -0.2042
      5 C         139.2130  139.5422  167.3385 C.ar    1  UNL1        0.0327
      6 C         140.4742  139.8864  166.6032 C.ar    1  UNL1        0.0395
      7 C         140.7286  139.3125  165.2409 C.ar    1  UNL1        0.1426
      8 C         139.9762  137.8204  163.2516 C.3     1  UNL1        0.0800
      9 C         138.9270  137.9269  162.1850 C.3     1  UNL1        0.0221
     10 C         142.1304  137.6122  161.8143 C.3     1  UNL1        0.0861
     11 N         141.2798  137.1398  162.9560 N.3     1  UNL1       -0.2939
     12 H         141.8494  137.2159  163.7987 H       1  UNL1        0.1235
     13 O         141.9899  139.6568  164.5056 O.3     1  UNL1       -0.4538
     14 C         142.4424  141.0844  164.4203 C.ar    1  UNL1        0.1453
     15 C         141.5856  142.1028  163.7284 C.ar    1  UNL1        0.0384
     16 C         142.0382  143.5303  163.6432 C.ar    1  UNL1        0.0145
     17 C         143.3475  143.9395  164.2499 C.ar    1  UNL1        0.0579
     18 CL        143.8001  145.3670  164.1646 Cl      1  UNL1       -0.0822
     19 C         144.2044  142.9212  164.9418 C.ar    1  UNL1        0.0145
     20 C         143.7518  141.4936  165.0270 C.ar    1  UNL1        0.0384
@<TRIPOS>BOND
     1    10    11    1
     2    11     8    1
     3     8     9    1
     4     8     1    1
     5     1     2   ar
     6     2     3   ar
     7     3     4    1
     8     3     5   ar
     9     5     6   ar
    10     6     7   ar
    11     7    13    1
    12    13    14    1
    13    14    15   ar
    14    15    16   ar
    15    16    17   ar
    16    17    18    1
    17    17    19   ar
    18    19    20   ar
    19     7     1   ar
    20    20    14   ar
    21    11    12    1
@<TRIPOS>MOLECULE
*****
 20 21 0 0 0
SMALL
GASTEIGER

@<TRIPOS>ATOM
      1 C         139.6684  140.5770  167.7356 C.ar    1  UNL1        0.0287
      2 C         138.6267  139.5528  168.0756 C.ar    1  UNL1        0.0297
      3 C         137.9816  138.7488  166.9859 C.ar    1  UNL1        0.1401
      4 F         136.9398  137.7245  167.3259 F       1  UNL1       -0.2042
      5 C         138.3783  138.9690  165.5562 C.ar    1  UNL1        0.0327
      6 C         139.4200  139.9932  165.2162 C.ar    1  UNL1        0.0395
      7 C         140.0651  140.7972  166.3059 C.ar    1  UNL1        0.1426
      8 C         140.3135  141.3810  168.8253 C.3     1  UNL1        0.0800
      9 C         140.7813  140.7047  170.0798 C.3     1  UNL1        0.0221
     10 C         140.5328  143.7506  169.8678 C.3     1  UNL1        0.0861
     11 N         140.4908  142.8613  168.6606 N.3     1  UNL1       -0.2939
     12 H         141.3704  142.9989  168.1628 H       1  UNL1        0.1235
     13 O         141.1069  141.8215  165.9659 O.3     1  UNL1       -0.4538
     14 C         140.7900  142.9198  164.9947 C.ar    1  UNL1        0.1453
     15 C         139.5175  143.7016  165.1356 C.ar    1  UNL1        0.0384
     16 C         139.2005  144.7999  164.1645 C.ar    1  UNL1        0.0145
     17 C         140.1560  145.1166  163.0524 C.ar    1  UNL1        0.0579
     18 CL        139.8391  146.2149  162.0812 Cl      1  UNL1       -0.0822
     19 C         141.4284  144.3349  162.9114 C.ar    1  UNL1        0.0145
     20 C         141.7454  143.2365  163.8826 C.ar    1  UNL1        0.0384
@<TRIPOS>BOND
     1    10    11    1
     2    11     8    1
     3     8     9    1
     4     8     1    1
     5     1     2   ar
     6     2     3   ar
     7     3     4    1
     8     3     5   ar
     9     5     6   ar
    10     6     7   ar
    11     7    13    1
    12    13    14    1
    13    14    15   ar
    14    15    16   ar
    15    16    17   ar
    16    17    18    1
    17    17    19   ar
    18    19    20   ar
    19     7     1   ar
    20    20    14   ar
    21    11    12    1
@<TRIPOS>MOLECULE
*****
 20 21 0 0 0
SMALL
GASTEIGER

@<TRIPOS>ATOM
      1 C         140.7428  144.2826  164.3395 C.ar    1  UNL1        0.0287
      2 C         141.7384  145.2117  163.7106 C.ar    1  UNL1        0.0297
      3 C         143.1968  144.8610  163.7124 C.ar    1  UNL1        0.1401
      4 F         144.1924  145.7902  163.0835 F       1  UNL1       -0.2042
      5 C         143.6596  143.5812  164.3431 C.ar    1  UNL1        0.0327
      6 C         142.6640  142.6521  164.9720 C.ar    1  UNL1        0.0395
      7 C         141.2056  143.0028  164.9702 C.ar    1  UNL1        0.1426
      8 C         139.2844  144.6334  164.3377 C.3     1  UNL1        0.0800
      9 C         138.6086  145.0374  165.6144 C.3     1  UNL1        0.0221
     10 C         138.8015  143.5213  162.0399 C.3     1  UNL1        0.0861
     11 N         138.5018  144.5801  163.0592 N.3     1  UNL1       -0.2939
     12 H         137.5214  144.4701  163.3185 H       1  UNL1        0.1235
     13 O         140.2100  142.0736  165.5991 O.3     1  UNL1       -0.4538
     14 C         140.3028  141.7533  167.0615 C.ar    1  UNL1        0.1453
     15 C         140.1315  140.3392  167.5319 C.ar    1  UNL1        0.0384
     16 C         140.2243  140.0189  168.9943 C.ar    1  UNL1        0.0145
     17 C         140.4883  141.1126  169.9864 C.ar    1  UNL1        0.0579
     18 CL        140.5810  140.7922  171.4488 Cl      1  UNL1       -0.0822
     19 C         140.6595  142.5265  169.5161 C.ar    1  UNL1        0.0145
     20 C         140.5668  142.8469  168.0536 C.ar    1  UNL1        0.0384
@<TRIPOS>BOND
     1    10    11    1
     2    11     8    1
     3     8     9    1
     4     8     1    1
     5     1     2   ar
     6     2     3   ar
     7     3     4    1
     8     3     5   ar
     9     5     6   ar
    10     6     7   ar
    11     7    13    1
    12    13    14    1
    13    14    15   ar
    14    15    16   ar
    15    16    17   ar
    16    17    18    1
    17    17    19   ar
    18    19    20   ar
    19     7     1   ar
    20    20    14   ar
    21    11    12    1
@<TRIPOS>MOLECULE
*****
 20 21 0 0 0
SMALL
GASTEIGER

@<TRIPOS>ATOM
      1 C         141.8900  139.8840  167.7872 C.ar    1  UNL1        0.0287
      2 C         142.4775  140.1096  169.1487 C.ar    1  UNL1        0.0297
      3 C         141.5790  140.3951  170.3154 C.ar    1  UNL1        0.1401
      4 F         142.1667  140.6207  171.6770 F       1  UNL1       -0.2042
      5 C         140.0930  140.4551  170.1206 C.ar    1  UNL1        0.0327
      6 C         139.5054  140.2295  168.7590 C.ar    1  UNL1        0.0395
      7 C         140.4039  139.9440  167.5924 C.ar    1  UNL1        0.1426
      8 C         142.7885  139.5985  166.6205 C.3     1  UNL1        0.0800
      9 C         143.5420  138.3033  166.5536 C.3     1  UNL1        0.0221
     10 C         143.3856  142.0027  165.8378 C.3     1  UNL1        0.0861
     11 N         142.9334  140.6081  165.5207 N.3     1  UNL1       -0.2939
     12 H         143.6051  140.2248  164.8557 H       1  UNL1        0.1235
     13 O         139.8163  139.7184  166.2307 O.3     1  UNL1       -0.4538
     14 C         139.2497  140.8723  165.4579 C.ar    1  UNL1        0.1453
     15 C         138.2001  140.6323  164.4134 C.ar    1  UNL1        0.0384
     16 C         137.6335  141.7862  163.6405 C.ar    1  UNL1        0.0145
     17 C         138.1163  143.1802  163.9121 C.ar    1  UNL1        0.0579
     18 CL        137.5497  144.3341  163.1392 Cl      1  UNL1       -0.0822
     19 C         139.1658  143.4202  164.9565 C.ar    1  UNL1        0.0145
     20 C         139.7325  142.2663  165.7295 C.ar    1  UNL1        0.0384
@<TRIPOS>BOND
     1    10    11    1
     2    11     8    1
     3     8     9    1
     4     8     1    1
     5     1     2   ar
     6     2     3   ar
     7     3     4    1
     8     3     5   ar
     9     5     6   ar
    10     6     7   ar
    11     7    13    1
    12    13    14    1
    13    14    15   ar
    14    15    16   ar
    15    16    17   ar
    16    17    18    1
    17    17    19   ar
    18    19    20   ar
    19     7     1   ar
    20    20    14   ar
    21    11    12    1
@<TRIPOS>MOLECULE
*****
 20 21 0 0 0
SMALL
GASTEIGER

@<TRIPOS>ATOM
      1 C         139.5049  140.3263  167.2362 C.ar    1  UNL1        0.0287
      2 C         139.5463  140.3825  168.7345 C.ar    1  UNL1        0.0297
      3 C         140.0845  141.6006  169.4248 C.ar    1  UNL1        0.1401
      4 F         140.1259  141.6568  170.9233 F       1  UNL1       -0.2042
      5 C         140.5814  142.7626  168.6168 C.ar    1  UNL1        0.0327
      6 C         140.5400  142.7064  167.1185 C.ar    1  UNL1        0.0395
      7 C         140.0017  141.4883  166.4282 C.ar    1  UNL1        0.1426
      8 C         138.9667  139.1082  166.5459 C.3     1  UNL1        0.0800
      9 C         137.6836  138.4872  167.0126 C.3     1  UNL1        0.0221
     10 C         138.9626  138.0380  164.1785 C.3     1  UNL1        0.0861
     11 N         139.7116  138.5112  165.3889 N.3     1  UNL1       -0.2939
     12 H         140.3730  139.2183  165.0681 H       1  UNL1        0.1235
     13 O         139.9604  141.4322  164.9297 O.3     1  UNL1       -0.4538
     14 C         139.8676  142.7003  164.1340 C.ar    1  UNL1        0.1453
     15 C         138.5399  143.3731  163.9472 C.ar    1  UNL1        0.0384
     16 C         138.4471  144.6412  163.1515 C.ar    1  UNL1        0.0145
     17 C         139.6819  145.2365  162.5425 C.ar    1  UNL1        0.0579
     18 CL        139.5891  146.5046  161.7467 Cl      1  UNL1       -0.0822
     19 C         141.0095  144.5638  162.7292 C.ar    1  UNL1        0.0145
     20 C         141.1023  143.2956  163.5249 C.ar    1  UNL1        0.0384
@<TRIPOS>BOND
     1    10    11    1
     2    11     8    1
     3     8     9    1
     4     8     1    1
     5     1     2   ar
     6     2     3   ar
     7     3     4    1
     8     3     5   ar
     9     5     6   ar
    10     6     7   ar
    11     7    13    1
    12    13    14    1
    13    14    15   ar
    14    15    16   ar
    15    16    17   ar
    16    17    18    1
    17    17    19   ar
    18    19    20   ar
    19     7     1   ar
    20    20    14   ar
    21    11    12    1
@<TRIPOS>MOLECULE
*****
 20 21 0 0 0
SMALL
GASTEIGER

@<TRIPOS>ATOM
      1 C         141.1189  141.9441  167.6294 C.ar    1  UNL1        0.0287
      2 C         140.6041  142.9212  168.6444 C.ar    1  UNL1        0.0297
      3 C         139.9026  142.4255  169.8742 C.ar    1  UNL1        0.1401
      4 F         139.3879  143.4027  170.8892 F       1  UNL1       -0.2042
      5 C         139.7159  140.9528  170.0889 C.ar    1  UNL1        0.0327
      6 C         140.2306  139.9757  169.0739 C.ar    1  UNL1        0.0395
      7 C         140.9321  140.4714  167.8441 C.ar    1  UNL1        0.1426
      8 C         141.8204  142.4398  166.3997 C.3     1  UNL1        0.0800
      9 C         141.0603  143.2122  165.3626 C.3     1  UNL1        0.0221
     10 C         144.1438  143.1538  165.4822 C.3     1  UNL1        0.0861
     11 N         143.2820  142.1630  166.2070 N.3     1  UNL1       -0.2939
     12 H         143.6848  142.0471  167.1369 H       1  UNL1        0.1235
     13 O         141.4469  139.4942  166.8291 O.3     1  UNL1       -0.4538
     14 C         140.5931  139.1106  165.6570 C.ar    1  UNL1        0.1453
     15 C         139.3149  139.8478  165.3870 C.ar    1  UNL1        0.0384
     16 C         138.4610  139.4643  164.2149 C.ar    1  UNL1        0.0145
     17 C         138.8853  138.3435  163.3128 C.ar    1  UNL1        0.0579
     18 CL        138.0315  137.9599  162.1407 Cl      1  UNL1       -0.0822
     19 C         140.1635  137.6063  163.5827 C.ar    1  UNL1        0.0145
     20 C         141.0174  137.9899  164.7549 C.ar    1  UNL1        0.0384
@<TRIPOS>BOND
     1    10    11    1
     2    11     8    1
     3     8     9    1
     4     8     1    1
     5     1     2   ar
     6     2     3   ar
     7     3     4    1
     8     3     5   ar
     9     5     6   ar
    10     6     7   ar
    11     7    13    1
    12    13    14    1
    13    14    15   ar
    14    15    16   ar
    15    16    17   ar
    16    17    18    1
    17    17    19   ar
    18    19    20   ar
    19     7     1   ar
    20    20    14   ar
    21    11    12    1
@<TRIPOS>MOLECULE
*****
 20 21 0 0 0
SMALL
GASTEIGER

@<TRIPOS>ATOM
      1 C         141.6297  140.7050  167.6042 C.ar    1  UNL1        0.0287
      2 C         142.7629  139.7268  167.6988 C.ar    1  UNL1        0.0297
      3 C         142.9817  138.7244  166.6046 C.ar    1  UNL1        0.1401
      4 F         144.1149  137.7461  166.6993 F       1  UNL1       -0.2042
      5 C         142.0673  138.7001  165.4159 C.ar    1  UNL1        0.0327
      6 C         140.9341  139.6782  165.3213 C.ar    1  UNL1        0.0395
      7 C         140.7153  140.6807  166.4154 C.ar    1  UNL1        0.1426
      8 C         141.4110  141.7075  168.6984 C.3     1  UNL1        0.0800
      9 C         142.5529  142.5516  169.1814 C.3     1  UNL1        0.0221
     10 C         139.3546  140.6797  169.9087 C.3     1  UNL1        0.0861
     11 N         140.0503  141.8659  169.3094 N.3     1  UNL1       -0.2939
     12 H         140.1396  142.5605  170.0510 H       1  UNL1        0.1235
     13 O         139.5820  141.6589  166.3208 O.3     1  UNL1       -0.4538
     14 C         139.6184  142.7519  165.2941 C.ar    1  UNL1        0.1453
     15 C         138.3720  143.1185  164.5444 C.ar    1  UNL1        0.0384
     16 C         138.4084  144.2114  163.5177 C.ar    1  UNL1        0.0145
     17 C         139.6912  144.9377  163.2406 C.ar    1  UNL1        0.0579
     18 CL        139.7276  146.0306  162.2139 Cl      1  UNL1       -0.0822
     19 C         140.9376  144.5712  163.9902 C.ar    1  UNL1        0.0145
     20 C         140.9013  143.4782  165.0170 C.ar    1  UNL1        0.0384
@<TRIPOS>BOND
     1    10    11    1
     2    11     8    1
     3     8     9    1
     4     8     1    1
     5     1     2   ar
     6     2     3   ar
     7     3     4    1
     8     3     5   ar
     9     5     6   ar
    10     6     7   ar
    11     7    13    1
    12    13    14    1
    13    14    15   ar
    14    15    16   ar
    15    16    17   ar
    16    17    18    1
    17    17    19   ar
    18    19    20   ar
    19     7     1   ar
    20    20    14   ar
    21    11    12    1
@<TRIPOS>MOLECULE
*****
 20 21 0 0 0
SMALL
GASTEIGER

@<TRIPOS>ATOM
      1 C         139.7972  140.7077  167.8476 C.ar    1  UNL1        0.0287
      2 C         138.8765  139.5413  168.0520 C.ar    1  UNL1        0.0297
      3 C         138.0596  139.0208  166.9067 C.ar    1  UNL1        0.1401
      4 F         137.1389  137.8544  167.1111 F       1  UNL1       -0.2042
      5 C         138.1634  139.6668  165.5569 C.ar    1  UNL1        0.0327
      6 C         139.0841  140.8332  165.3525 C.ar    1  UNL1        0.0395
      7 C         139.9010  141.3536  166.4978 C.ar    1  UNL1        0.1426
      8 C         140.6141  141.2281  168.9929 C.3     1  UNL1        0.0800
      9 C         141.9890  140.6827  169.2424 C.3     1  UNL1        0.0221
     10 C         140.5050  143.7165  169.7315 C.3     1  UNL1        0.0861
     11 N         140.0562  142.2939  169.8888 N.3     1  UNL1       -0.2939
     12 H         139.0446  142.2882  169.7586 H       1  UNL1        0.1235
     13 O         140.8217  142.5201  166.2933 O.3     1  UNL1       -0.4538
     14 C         142.1071  142.3382  165.5419 C.ar    1  UNL1        0.1453
     15 C         142.8312  141.0258  165.6009 C.ar    1  UNL1        0.0384
     16 C         144.1166  140.8440  164.8495 C.ar    1  UNL1        0.0145
     17 C         144.6779  141.9745  164.0390 C.ar    1  UNL1        0.0579
     18 CL        145.9633  141.7927  163.2876 Cl      1  UNL1       -0.0822
     19 C         143.9539  143.2868  163.9800 C.ar    1  UNL1        0.0145
     20 C         142.6685  143.4687  164.7314 C.ar    1  UNL1        0.0384
@<TRIPOS>BOND
     1    10    11    1
     2    11     8    1
     3     8     9    1
     4     8     1    1
     5     1     2   ar
     6     2     3   ar
     7     3     4    1
     8     3     5   ar
     9     5     6   ar
    10     6     7   ar
    11     7    13    1
    12    13    14    1
    13    14    15   ar
    14    15    16   ar
    15    16    17   ar
    16    17    18    1
    17    17    19   ar
    18    19    20   ar
    19     7     1   ar
    20    20    14   ar
    21    11    12    1
@<TRIPOS>MOLECULE
*****
 20 21 0 0 0
SMALL
GASTEIGER

@<TRIPOS>ATOM
      1 C         139.0436  141.0887  163.9299 C.ar    1  UNL1        0.0287
      2 C         138.7579  139.8247  163.1745 C.ar    1  UNL1        0.0297
      3 C         138.7122  138.5121  163.8990 C.ar    1  UNL1        0.1401
      4 F         138.4265  137.2480  163.1435 F       1  UNL1       -0.2042
      5 C         138.9522  138.4634  165.3788 C.ar    1  UNL1        0.0327
      6 C         139.2378  139.7274  166.1342 C.ar    1  UNL1        0.0395
      7 C         139.2835  141.0400  165.4098 C.ar    1  UNL1        0.1426
      8 C         139.0893  142.4014  163.2055 C.3     1  UNL1        0.0800
      9 C         137.9158  142.8457  162.3836 C.3     1  UNL1        0.0221
     10 C         141.6529  142.7196  162.9291 C.3     1  UNL1        0.0861
     11 N         140.3085  143.2697  163.3029 N.3     1  UNL1       -0.2939
     12 H         140.1434  144.0774  162.7023 H       1  UNL1        0.1235
     13 O         139.5692  142.3041  166.1653 O.3     1  UNL1       -0.4538
     14 C         140.7350  142.3678  167.1070 C.ar    1  UNL1        0.1453
     15 C         142.1238  142.1154  166.5994 C.ar    1  UNL1        0.0384
     16 C         143.2896  142.1792  167.5411 C.ar    1  UNL1        0.0145
     17 C         143.0667  142.4952  168.9904 C.ar    1  UNL1        0.0579
     18 CL        144.2325  142.5590  169.9320 Cl      1  UNL1       -0.0822
     19 C         141.6779  142.7476  169.4979 C.ar    1  UNL1        0.0145
     20 C         140.5121  142.6839  168.5562 C.ar    1  UNL1        0.0384
@<TRIPOS>BOND
     1    10    11    1
     2    11     8    1
     3     8     9    1
     4     8     1    1
     5     1     2   ar
     6     2     3   ar
     7     3     4    1
     8     3     5   ar
     9     5     6   ar
    10     6     7   ar
    11     7    13    1
    12    13    14    1
    13    14    15   ar
    14    15    16   ar
    15    16    17   ar
    16    17    18    1
    17    17    19   ar
    18    19    20   ar
    19     7     1   ar
    20    20    14   ar
    21    11    12    1
