@<TRIPOS>MOLECULE
*****
 23 25 0 0 0
SMALL
GASTEIGER

@<TRIPOS>ATOM
      1 C         139.7322  140.5155  168.2705 C.2     1  UNL1        0.2487
      2 O         138.9898  139.4849  169.0684 O.2     1  UNL1       -0.2699
      3 N         139.4984  140.6321  166.7935 N.am    1  UNL1       -0.2763
      4 C         142.0917  140.9453  169.2697 C.ar    1  UNL1       -0.0181
      5 C         143.0679  141.8593  169.9489 C.ar    1  UNL1       -0.0041
      6 C         142.6611  143.2577  170.3082 C.ar    1  UNL1       -0.0003
      7 C         141.2780  143.7420  169.9883 C.ar    1  UNL1        0.0001
      8 C         140.3017  142.8280  169.3090 C.ar    1  UNL1        0.0042
      9 C         140.7086  141.4296  168.9498 C.ar    1  UNL1        0.0496
     10 C         142.8109  139.1995  167.4851 C.3     1  UNL1        0.0047
     11 C         142.4985  139.5469  168.9104 C.3     1  UNL1        0.0225
     12 C         142.5930  138.4960  169.9765 C.3     1  UNL1        0.0047
     13 C         140.2408  141.6628  165.9956 C.3     1  UNL1        0.0927
     14 C         141.5788  141.4772  165.3433 C.3     1  UNL1        0.0383
     15 C         141.9406  142.7597  164.6545 C.3     1  UNL1        0.0704
     16 N         140.8262  143.7378  164.8811 N.3     1  UNL1       -0.2960
     17 C         139.7757  143.0599  165.7099 C.3     1  UNL1        0.0887
     18 H         140.4295  144.0241  163.9861 H       1  UNL1        0.1233
     19 C         138.5220  139.7181  166.1142 C.3     1  UNL1        0.0936
     20 C         138.9678  138.8672  164.9621 C.3     1  UNL1        0.0199
     21 C         138.7545  138.8956  163.4777 C.3     1  UNL1        0.0017
     22 C         139.5983  137.6639  163.3329 C.3     1  UNL1        0.0001
     23 C         139.8116  137.6355  164.8174 C.3     1  UNL1        0.0017
@<TRIPOS>BOND
     1    10    11    1
     2    11    12    1
     3    11     4    1
     4     4     5   ar
     5     5     6   ar
     6     6     7   ar
     7     7     8   ar
     8     8     9   ar
     9     9     1    1
    10     1     2    2
    11     1     3   am
    12     3    19    1
    13    19    20    1
    14    20    21    1
    15    21    22    1
    16    22    23    1
    17    13     3    1
    18    13    14    1
    19    14    15    1
    20    15    16    1
    21    16    17    1
    22     9     4   ar
    23    23    20    1
    24    17    13    1
    25    16    18    1
@<TRIPOS>MOLECULE
*****
 23 25 0 0 0
SMALL
GASTEIGER

@<TRIPOS>ATOM
      1 C         140.0795  140.5416  164.3051 C.2     1  UNL1        0.2487
      2 O         139.3974  141.3266  163.2241 O.2     1  UNL1       -0.2699
      3 N         141.5359  140.7630  164.5875 N.am    1  UNL1       -0.2763
      4 C         139.1184  138.1432  164.5770 C.ar    1  UNL1       -0.0181
      5 C         138.3441  137.1369  165.3756 C.ar    1  UNL1       -0.0041
      6 C         137.7566  137.5226  166.7007 C.ar    1  UNL1       -0.0003
      7 C         137.9434  138.9146  167.2274 C.ar    1  UNL1        0.0001
      8 C         138.7177  139.9209  166.4288 C.ar    1  UNL1        0.0042
      9 C         139.3052  139.5352  165.1037 C.ar    1  UNL1        0.0496
     10 C         138.9278  137.9893  161.9905 C.3     1  UNL1        0.0047
     11 C         139.7059  137.7575  163.2518 C.3     1  UNL1        0.0225
     12 C         141.0714  137.1401  163.1879 C.3     1  UNL1        0.0047
     13 C         142.2181  139.9781  165.6685 C.3     1  UNL1        0.0927
     14 C         142.9700  138.6933  165.4845 C.3     1  UNL1        0.0383
     15 C         143.4847  138.2612  166.8256 C.3     1  UNL1        0.0704
     16 N         143.0509  139.2790  167.8384 N.3     1  UNL1       -0.2960
     17 C         142.2681  140.3401  167.1233 C.3     1  UNL1        0.0887
     18 H         143.8690  139.6939  168.2846 H       1  UNL1        0.1233
     19 C         142.3103  141.7694  163.7890 C.3     1  UNL1        0.0936
     20 C         143.8085  141.7067  163.7540 C.3     1  UNL1        0.0199
     21 C         144.9177  142.4610  164.4254 C.3     1  UNL1        0.0017
     22 C         145.9274  141.6180  163.7044 C.3     1  UNL1        0.0001
     23 C         144.8183  140.8638  163.0329 C.3     1  UNL1        0.0017
@<TRIPOS>BOND
     1    10    11    1
     2    11    12    1
     3    11     4    1
     4     4     5   ar
     5     5     6   ar
     6     6     7   ar
     7     7     8   ar
     8     8     9   ar
     9     9     1    1
    10     1     2    2
    11     1     3   am
    12     3    19    1
    13    19    20    1
    14    20    21    1
    15    21    22    1
    16    22    23    1
    17    13     3    1
    18    13    14    1
    19    14    15    1
    20    15    16    1
    21    16    17    1
    22     9     4   ar
    23    23    20    1
    24    17    13    1
    25    16    18    1
@<TRIPOS>MOLECULE
*****
 23 25 0 0 0
SMALL
GASTEIGER

@<TRIPOS>ATOM
      1 C         141.9087  140.3485  166.5675 C.2     1  UNL1        0.2487
      2 O         143.0559  139.5954  167.1731 O.2     1  UNL1       -0.2699
      3 N         142.1463  141.6758  165.9105 N.am    1  UNL1       -0.2763
      4 C         139.7140  139.8806  167.8769 C.ar    1  UNL1       -0.0181
      5 C         138.3293  139.3063  167.9282 C.ar    1  UNL1       -0.0041
      6 C         137.7544  138.6256  166.7215 C.ar    1  UNL1       -0.0003
      7 C         138.5643  138.5192  165.4634 C.ar    1  UNL1        0.0001
      8 C         139.9490  139.0935  165.4121 C.ar    1  UNL1        0.0042
      9 C         140.5239  139.7742  166.6188 C.ar    1  UNL1        0.0496
     10 C         140.1084  142.0388  169.2685 C.3     1  UNL1        0.0047
     11 C         140.2889  140.5612  169.0836 C.3     1  UNL1        0.0225
     12 C         141.0443  139.7644  170.1055 C.3     1  UNL1        0.0047
     13 C         140.9991  142.4289  165.3048 C.3     1  UNL1        0.0927
     14 C         140.0381  143.3139  166.0419 C.3     1  UNL1        0.0383
     15 C         139.0565  143.8612  165.0484 C.3     1  UNL1        0.0704
     16 N         139.4109  143.3145  163.6973 N.3     1  UNL1       -0.2960
     17 C         140.6115  142.4293  163.8558 C.3     1  UNL1        0.0887
     18 H         139.6275  144.0807  163.0597 H       1  UNL1        0.1233
     19 C         143.5311  142.2501  165.8591 C.3     1  UNL1        0.0936
     20 C         144.3730  142.0690  164.6310 C.3     1  UNL1        0.0199
     21 C         145.2730  140.9869  164.1122 C.3     1  UNL1        0.0017
     22 C         145.5638  141.8128  162.8943 C.3     1  UNL1        0.0001
     23 C         144.6638  142.8948  163.4131 C.3     1  UNL1        0.0017
@<TRIPOS>BOND
     1    10    11    1
     2    11    12    1
     3    11     4    1
     4     4     5   ar
     5     5     6   ar
     6     6     7   ar
     7     7     8   ar
     8     8     9   ar
     9     9     1    1
    10     1     2    2
    11     1     3   am
    12     3    19    1
    13    19    20    1
    14    20    21    1
    15    21    22    1
    16    22    23    1
    17    13     3    1
    18    13    14    1
    19    14    15    1
    20    15    16    1
    21    16    17    1
    22     9     4   ar
    23    23    20    1
    24    17    13    1
    25    16    18    1
@<TRIPOS>MOLECULE
*****
 23 25 0 0 0
SMALL
GASTEIGER

@<TRIPOS>ATOM
      1 C         141.1989  141.0971  164.9516 C.2     1  UNL1        0.2487
      2 O         140.2351  141.0021  163.8060 O.2     1  UNL1       -0.2699
      3 N         140.7125  140.9112  166.3582 N.am    1  UNL1       -0.2763
      4 C         143.5977  140.2450  164.4325 C.ar    1  UNL1       -0.0181
      5 C         145.0478  140.5258  164.1712 C.ar    1  UNL1       -0.0041
      6 C         145.5493  141.9395  164.1678 C.ar    1  UNL1       -0.0003
      7 C         144.6006  143.0724  164.4256 C.ar    1  UNL1        0.0001
      8 C         143.1505  142.7915  164.6869 C.ar    1  UNL1        0.0042
      9 C         142.6491  141.3778  164.6903 C.ar    1  UNL1        0.0496
     10 C         143.0926  138.0399  165.7101 C.3     1  UNL1        0.0047
     11 C         143.0963  138.8312  164.4359 C.3     1  UNL1        0.0225
     12 C         142.5986  138.2089  163.1651 C.3     1  UNL1        0.0047
     13 C         141.6762  141.0061  167.5038 C.3     1  UNL1        0.0927
     14 C         142.3178  142.2621  168.0145 C.3     1  UNL1        0.0383
     15 C         143.2057  141.8940  169.1661 C.3     1  UNL1        0.0704
     16 N         143.1129  140.4104  169.3670 N.3     1  UNL1       -0.2960
     17 C         142.1677  139.8617  168.3397 C.3     1  UNL1        0.0887
     18 H         142.7615  140.2092  170.3032 H       1  UNL1        0.1233
     19 C         139.2623  140.6304  166.6195 C.3     1  UNL1        0.0936
     20 C         138.7218  139.2434  166.4351 C.3     1  UNL1        0.0199
     21 C         137.6305  138.4367  167.0739 C.3     1  UNL1        0.0017
     22 C         137.9575  137.2818  166.1743 C.3     1  UNL1        0.0001
     23 C         139.0489  138.0885  165.5355 C.3     1  UNL1        0.0017
@<TRIPOS>BOND
     1    10    11    1
     2    11    12    1
     3    11     4    1
     4     4     5   ar
     5     5     6   ar
     6     6     7   ar
     7     7     8   ar
     8     8     9   ar
     9     9     1    1
    10     1     2    2
    11     1     3   am
    12     3    19    1
    13    19    20    1
    14    20    21    1
    15    21    22    1
    16    22    23    1
    17    13     3    1
    18    13    14    1
    19    14    15    1
    20    15    16    1
    21    16    17    1
    22     9     4   ar
    23    23    20    1
    24    17    13    1
    25    16    18    1
@<TRIPOS>MOLECULE
*****
 23 25 0 0 0
SMALL
GASTEIGER

@<TRIPOS>ATOM
      1 C         141.6720  141.0128  165.9548 C.2     1  UNL1        0.2487
      2 O         141.6380  140.6293  167.4046 O.2     1  UNL1       -0.2699
      3 N         140.3951  141.1044  165.1731 N.am    1  UNL1       -0.2763
      4 C         143.8398  140.1774  164.7915 C.ar    1  UNL1       -0.0181
      5 C         145.1507  140.4693  164.1235 C.ar    1  UNL1       -0.0041
      6 C         145.6048  141.8884  163.9507 C.ar    1  UNL1       -0.0003
      7 C         144.7481  143.0156  164.4459 C.ar    1  UNL1        0.0001
      8 C         143.4372  142.7237  165.1140 C.ar    1  UNL1        0.0042
      9 C         142.9830  141.3046  165.2868 C.ar    1  UNL1        0.0496
     10 C         143.7308  138.0075  166.2161 C.3     1  UNL1        0.0047
     11 C         143.3856  138.7583  164.9643 C.3     1  UNL1        0.0225
     12 C         142.5862  138.0900  163.8853 C.3     1  UNL1        0.0047
     13 C         140.4291  141.4878  163.7234 C.3     1  UNL1        0.0927
     14 C         140.5504  140.5435  162.5642 C.3     1  UNL1        0.0383
     15 C         140.5440  141.3550  161.3026 C.3     1  UNL1        0.0704
     16 N         140.4188  142.8008  161.6821 N.3     1  UNL1       -0.2960
     17 C         140.3478  142.8829  163.1782 C.3     1  UNL1        0.0887
     18 H         139.5710  143.1938  161.2732 H       1  UNL1        0.1233
     19 C         139.0842  140.8125  165.8412 C.3     1  UNL1        0.0936
     20 C         138.6244  139.3940  166.0033 C.3     1  UNL1        0.0199
     21 C         138.8695  138.1091  165.2692 C.3     1  UNL1        0.0017
     22 C         137.9742  137.3878  166.2327 C.3     1  UNL1        0.0001
     23 C         137.7291  138.6728  166.9668 C.3     1  UNL1        0.0017
@<TRIPOS>BOND
     1    10    11    1
     2    11    12    1
     3    11     4    1
     4     4     5   ar
     5     5     6   ar
     6     6     7   ar
     7     7     8   ar
     8     8     9   ar
     9     9     1    1
    10     1     2    2
    11     1     3   am
    12     3    19    1
    13    19    20    1
    14    20    21    1
    15    21    22    1
    16    22    23    1
    17    13     3    1
    18    13    14    1
    19    14    15    1
    20    15    16    1
    21    16    17    1
    22     9     4   ar
    23    23    20    1
    24    17    13    1
    25    16    18    1
@<TRIPOS>MOLECULE
*****
 23 25 0 0 0
SMALL
GASTEIGER

@<TRIPOS>ATOM
      1 C         140.6050  140.1201  166.9936 C.2     1  UNL1        0.2487
      2 O         140.9019  139.5407  168.3449 O.2     1  UNL1       -0.2699
      3 N         140.4692  141.6047  166.8274 N.am    1  UNL1       -0.2763
      4 C         141.6549  138.6669  165.1132 C.ar    1  UNL1       -0.0181
      5 C         141.4938  137.7617  163.9280 C.ar    1  UNL1       -0.0041
      6 C         140.1218  137.4046  163.4380 C.ar    1  UNL1       -0.0003
      7 C         138.9109  137.9526  164.1332 C.ar    1  UNL1        0.0001
      8 C         139.0720  138.8578  165.3183 C.ar    1  UNL1        0.0042
      9 C         140.4439  139.2149  165.8083 C.ar    1  UNL1        0.0496
     10 C         143.7163  138.1481  166.6069 C.3     1  UNL1        0.0047
     11 C         143.0268  139.0240  165.6032 C.3     1  UNL1        0.0225
     12 C         143.7094  140.2569  165.0895 C.3     1  UNL1        0.0047
     13 C         140.1723  142.1841  165.4761 C.3     1  UNL1        0.0927
     14 C         141.1873  142.6106  164.4573 C.3     1  UNL1        0.0383
     15 C         140.4507  143.1289  163.2578 C.3     1  UNL1        0.0704
     16 N         138.9804  143.0226  163.5352 N.3     1  UNL1       -0.2960
     17 C         138.8084  142.4387  164.9062 C.3     1  UNL1        0.0887
     18 H         138.5405  142.4162  162.8430 H       1  UNL1        0.1233
     19 C         140.6302  142.5099  168.0127 C.3     1  UNL1        0.0936
     20 C         141.9299  142.5418  168.7609 C.3     1  UNL1        0.0199
     21 C         142.3412  142.9030  170.1575 C.3     1  UNL1        0.0017
     22 C         143.7679  142.5870  169.8190 C.3     1  UNL1        0.0001
     23 C         143.3566  142.2258  168.4224 C.3     1  UNL1        0.0017
@<TRIPOS>BOND
     1    10    11    1
     2    11    12    1
     3    11     4    1
     4     4     5   ar
     5     5     6   ar
     6     6     7   ar
     7     7     8   ar
     8     8     9   ar
     9     9     1    1
    10     1     2    2
    11     1     3   am
    12     3    19    1
    13    19    20    1
    14    20    21    1
    15    21    22    1
    16    22    23    1
    17    13     3    1
    18    13    14    1
    19    14    15    1
    20    15    16    1
    21    16    17    1
    22     9     4   ar
    23    23    20    1
    24    17    13    1
    25    16    18    1
@<TRIPOS>MOLECULE
*****
 23 25 0 0 0
SMALL
GASTEIGER

@<TRIPOS>ATOM
      1 C         141.2640  140.7674  163.5122 C.2     1  UNL1        0.2487
      2 O         142.0939  139.5793  163.8988 O.2     1  UNL1       -0.2699
      3 N         139.7858  140.6152  163.3079 N.am    1  UNL1       -0.2763
      4 C         142.2415  142.9506  164.5264 C.ar    1  UNL1       -0.0181
      5 C         142.8897  144.2909  164.3441 C.ar    1  UNL1       -0.0041
      6 C         143.2087  144.7885  162.9655 C.ar    1  UNL1       -0.0003
      7 C         142.8795  143.9457  161.7691 C.ar    1  UNL1        0.0001
      8 C         142.2313  142.6054  161.9514 C.ar    1  UNL1        0.0042
      9 C         141.9123  142.1078  163.3300 C.ar    1  UNL1        0.0496
     10 C         142.9328  141.6438  166.6628 C.3     1  UNL1        0.0047
     11 C         141.9224  142.4530  165.9050 C.3     1  UNL1        0.0225
     12 C         140.5930  142.7646  166.5259 C.3     1  UNL1        0.0047
     13 C         138.9559  141.8034  162.9213 C.3     1  UNL1        0.0927
     14 C         138.4318  142.8541  163.8547 C.3     1  UNL1        0.0383
     15 C         137.6563  143.8495  163.0437 C.3     1  UNL1        0.0704
     16 N         137.7010  143.4140  161.6090 N.3     1  UNL1       -0.2960
     17 C         138.5042  142.1494  161.5334 C.3     1  UNL1        0.0887
     18 H         138.1410  144.1380  161.0410 H       1  UNL1        0.1233
     19 C         139.1375  139.2748  163.4901 C.3     1  UNL1        0.0936
     20 C         138.6267  138.8660  164.8398 C.3     1  UNL1        0.0199
     21 C         138.0539  139.5912  166.0214 C.3     1  UNL1        0.0017
     22 C         137.9042  138.2879  166.7487 C.3     1  UNL1        0.0001
     23 C         138.4769  137.5627  165.5672 C.3     1  UNL1        0.0017
@<TRIPOS>BOND
     1    10    11    1
     2    11    12    1
     3    11     4    1
     4     4     5   ar
     5     5     6   ar
     6     6     7   ar
     7     7     8   ar
     8     8     9   ar
     9     9     1    1
    10     1     2    2
    11     1     3   am
    12     3    19    1
    13    19    20    1
    14    20    21    1
    15    21    22    1
    16    22    23    1
    17    13     3    1
    18    13    14    1
    19    14    15    1
    20    15    16    1
    21    16    17    1
    22     9     4   ar
    23    23    20    1
    24    17    13    1
    25    16    18    1
@<TRIPOS>MOLECULE
*****
 23 25 0 0 0
SMALL
GASTEIGER

@<TRIPOS>ATOM
      1 C         142.7486  142.0023  166.8236 C.2     1  UNL1        0.2487
      2 O         143.2939  141.7647  168.2007 O.2     1  UNL1       -0.2699
      3 N         141.3707  142.5690  166.6500 N.am    1  UNL1       -0.2763
      4 C         143.6162  140.2689  165.0936 C.ar    1  UNL1       -0.0181
      5 C         144.4489  139.9398  163.8902 C.ar    1  UNL1       -0.0041
      6 C         145.2466  141.0147  163.2133 C.ar    1  UNL1       -0.0003
      7 C         145.2117  142.4187  163.7399 C.ar    1  UNL1        0.0001
      8 C         144.3791  142.7479  164.9433 C.ar    1  UNL1        0.0042
      9 C         143.5813  141.6730  165.6202 C.ar    1  UNL1        0.0496
     10 C         143.3939  138.4601  166.9453 C.3     1  UNL1        0.0047
     11 C         142.8184  139.1940  165.7705 C.3     1  UNL1        0.0225
     12 C         141.4452  138.8531  165.2726 C.3     1  UNL1        0.0047
     13 C         140.8255  142.8065  165.2730 C.3     1  UNL1        0.0927
     14 C         139.9686  141.8579  164.4882 C.3     1  UNL1        0.0383
     15 C         139.6548  142.4995  163.1691 C.3     1  UNL1        0.0704
     16 N         140.3179  143.8447  163.1386 N.3     1  UNL1       -0.2960
     17 C         141.0413  144.0344  164.4389 C.3     1  UNL1        0.0887
     18 H         139.6147  144.5746  163.0240 H       1  UNL1        0.1233
     19 C         140.5380  142.8982  167.8535 C.3     1  UNL1        0.0936
     20 C         140.0084  141.7969  168.7232 C.3     1  UNL1        0.0199
     21 C         139.6659  140.3516  168.5137 C.3     1  UNL1        0.0017
     22 C         139.2594  140.2392  169.9532 C.3     1  UNL1        0.0001
     23 C         139.6020  141.6845  170.1627 C.3     1  UNL1        0.0017
@<TRIPOS>BOND
     1    10    11    1
     2    11    12    1
     3    11     4    1
     4     4     5   ar
     5     5     6   ar
     6     6     7   ar
     7     7     8   ar
     8     8     9   ar
     9     9     1    1
    10     1     2    2
    11     1     3   am
    12     3    19    1
    13    19    20    1
    14    20    21    1
    15    21    22    1
    16    22    23    1
    17    13     3    1
    18    13    14    1
    19    14    15    1
    20    15    16    1
    21    16    17    1
    22     9     4   ar
    23    23    20    1
    24    17    13    1
    25    16    18    1
@<TRIPOS>MOLECULE
*****
 23 25 0 0 0
SMALL
GASTEIGER

@<TRIPOS>ATOM
      1 C         140.8200  141.2711  165.7358 C.2     1  UNL1        0.2487
      2 O         141.9206  141.4890  166.7314 O.2     1  UNL1       -0.2699
      3 N         140.4271  142.3745  164.7987 N.am    1  UNL1       -0.2763
      4 C         140.7328  138.7984  164.9434 C.ar    1  UNL1       -0.0181
      5 C         140.0251  137.4772  164.8850 C.ar    1  UNL1       -0.0041
      6 C         138.6967  137.3074  165.5607 C.ar    1  UNL1       -0.0003
      7 C         138.0760  138.4589  166.2947 C.ar    1  UNL1        0.0001
      8 C         138.7838  139.7801  166.3531 C.ar    1  UNL1        0.0042
      9 C         140.1122  139.9498  165.6774 C.ar    1  UNL1        0.0496
     10 C         142.1226  139.3764  162.8257 C.3     1  UNL1        0.0047
     11 C         142.0613  138.9681  164.2678 C.3     1  UNL1        0.0225
     12 C         143.3284  138.7295  165.0341 C.3     1  UNL1        0.0047
     13 C         139.3265  142.1566  163.8031 C.3     1  UNL1        0.0927
     14 C         139.4960  141.6755  162.3925 C.3     1  UNL1        0.0383
     15 C         138.1374  141.6032  161.7610 C.3     1  UNL1        0.0704
     16 N         137.1281  142.0395  162.7812 N.3     1  UNL1       -0.2960
     17 C         137.8630  142.3816  164.0434 C.3     1  UNL1        0.0887
     18 H         136.4671  141.2835  162.9596 H       1  UNL1        0.1233
     19 C         141.1349  143.6958  164.8571 C.3     1  UNL1        0.0936
     20 C         142.3724  143.9205  164.0398 C.3     1  UNL1        0.0199
     21 C         143.2955  143.0413  163.2493 C.3     1  UNL1        0.0017
     22 C         144.1225  144.2383  162.8840 C.3     1  UNL1        0.0001
     23 C         143.1994  145.1174  163.6745 C.3     1  UNL1        0.0017
@<TRIPOS>BOND
     1    10    11    1
     2    11    12    1
     3    11     4    1
     4     4     5   ar
     5     5     6   ar
     6     6     7   ar
     7     7     8   ar
     8     8     9   ar
     9     9     1    1
    10     1     2    2
    11     1     3   am
    12     3    19    1
    13    19    20    1
    14    20    21    1
    15    21    22    1
    16    22    23    1
    17    13     3    1
    18    13    14    1
    19    14    15    1
    20    15    16    1
    21    16    17    1
    22     9     4   ar
    23    23    20    1
    24    17    13    1
    25    16    18    1
