@<TRIPOS>MOLECULE
*****
 25 28 0 0 0
SMALL
GASTEIGER

@<TRIPOS>ATOM
      1 C         143.8682  141.8041  163.2538 C.2     1  UNL1        0.3270
      2 N         143.4845  142.3487  161.9099 N.2     1  UNL1       -0.0380
      3 C         142.1382  142.9972  162.0396 C.2     1  UNL1        0.2637
      4 C         141.2626  143.7001  161.0451 C.2     1  UNL1        0.2821
      5 N         139.9386  144.2592  161.4746 N.2     1  UNL1       -0.0268
      6 C         139.4902  144.1154  162.8988 C.2     1  UNL1        0.3760
      7 N         138.2465  144.5606  163.6092 N.2     1  UNL1       -0.0306
      8 C         138.3534  144.1329  165.0430 C.2     1  UNL1        0.2361
      9 C         139.6632  143.4233  165.2186 C.2     1  UNL1        0.0583
     10 C         140.3658  143.4125  163.8934 C.2     1  UNL1        0.1203
     11 C         141.6898  142.8534  163.4638 C.3     1  UNL1        0.2596
     12 N         142.7590  142.1160  164.2142 N.pl3   1  UNL1       -0.1887
     13 C         142.7250  141.7541  165.6694 C.3     1  UNL1        0.1605
     14 C         142.0506  140.4895  166.1123 C.3     1  UNL1        0.0466
     15 C         142.0167  140.1276  167.5676 C.3     1  UNL1        0.0052
     16 C         142.6571  141.0302  168.5800 C.3     1  UNL1        0.0154
     17 C         143.3315  142.2948  168.1372 C.3     1  UNL1        0.0052
     18 C         143.3655  142.6567  166.6820 C.3     1  UNL1        0.0466
     19 C         142.6231  140.6683  170.0353 C.3     1  UNL1        0.1054
     20 C         141.6565  141.3525  170.9560 C.1     1  UNL1        0.0731
     21 N         140.6900  142.0368  171.8766 N.1     1  UNL1       -0.1959
     22 C         145.0822  139.6891  164.1499 C.3     1  UNL1        0.0450
     23 C         145.1381  141.0755  163.5800 C.3     1  UNL1        0.2165
     24 O         146.4640  141.7333  163.3363 O.3     1  UNL1       -0.3737
     25 H         146.3224  142.6195  162.9683 H       1  UNL1        0.2111
@<TRIPOS>BOND
     1    23    22    1
     2    23    24    1
     3    23     1    1
     4     1     2    2
     5     2     3    1
     6     3     4    2
     7     4     5    1
     8     5     6    2
     9     6     7    1
    10     7     8    2
    11     8     9    1
    12     9    10    2
    13    10    11    1
    14    11    12    1
    15    13    12    1
    16    13    14    1
    17    14    15    1
    18    15    16    1
    19    16    19    1
    20    19    20    1
    21    20    21    3
    22    16    17    1
    23    17    18    1
    24    12     1    1
    25    18    13    1
    26    11     3    1
    27    10     6    1
    28    24    25    1
@<TRIPOS>MOLECULE
*****
 25 28 0 0 0
SMALL
GASTEIGER

@<TRIPOS>ATOM
      1 C         142.4037  139.4305  166.5465 C.2     1  UNL1        0.3270
      2 N         143.1052  138.8378  167.7325 N.2     1  UNL1       -0.0380
      3 C         142.6328  139.5603  168.9593 C.2     1  UNL1        0.2637
      4 C         142.9790  139.4062  170.4105 C.2     1  UNL1        0.2821
      5 N         142.3317  140.2913  171.4342 N.2     1  UNL1       -0.0268
      6 C         141.3383  141.3306  171.0063 C.2     1  UNL1        0.3760
      7 N         140.5445  142.3396  171.7819 N.2     1  UNL1       -0.0306
      8 C         139.7077  143.1174  170.8099 C.2     1  UNL1        0.2361
      9 C         139.9844  142.5891  169.4336 C.2     1  UNL1        0.0583
     10 C         140.9922  141.4847  169.5549 C.2     1  UNL1        0.1203
     11 C         141.6395  140.5996  168.5314 C.3     1  UNL1        0.2596
     12 N         141.4978  140.5194  167.0403 N.pl3   1  UNL1       -0.1887
     13 C         140.6068  141.3774  166.1918 C.3     1  UNL1        0.1605
     14 C         141.0257  142.7734  165.8377 C.3     1  UNL1        0.0466
     15 C         140.1346  143.6314  164.9892 C.3     1  UNL1        0.0052
     16 C         138.8246  143.0934  164.4950 C.3     1  UNL1        0.0154
     17 C         138.4057  141.6973  164.8491 C.3     1  UNL1        0.0052
     18 C         139.2967  140.8393  165.6976 C.3     1  UNL1        0.0466
     19 C         137.9336  143.9513  163.6465 C.3     1  UNL1        0.1054
     20 C         138.5330  144.9281  162.6787 C.1     1  UNL1        0.0731
     21 N         139.1325  145.9049  161.7110 N.1     1  UNL1       -0.1959
     22 C         141.6477  137.9968  164.5160 C.3     1  UNL1        0.0450
     23 C         142.5775  139.0085  165.1177 C.3     1  UNL1        0.2165
     24 O         143.6812  139.5981  164.2905 O.3     1  UNL1       -0.3737
     25 H         144.1852  140.2299  164.8269 H       1  UNL1        0.2111
@<TRIPOS>BOND
     1    23    22    1
     2    23    24    1
     3    23     1    1
     4     1     2    2
     5     2     3    1
     6     3     4    2
     7     4     5    1
     8     5     6    2
     9     6     7    1
    10     7     8    2
    11     8     9    1
    12     9    10    2
    13    10    11    1
    14    11    12    1
    15    13    12    1
    16    13    14    1
    17    14    15    1
    18    15    16    1
    19    16    19    1
    20    19    20    1
    21    20    21    3
    22    16    17    1
    23    17    18    1
    24    12     1    1
    25    18    13    1
    26    11     3    1
    27    10     6    1
    28    24    25    1
@<TRIPOS>MOLECULE
*****
 25 28 0 0 0
SMALL
GASTEIGER

@<TRIPOS>ATOM
      1 C         139.8957  143.8379  163.2541 C.2     1  UNL1        0.3270
      2 N         140.6047  144.2872  162.0110 N.2     1  UNL1       -0.0380
      3 C         141.9398  143.6047  161.9664 C.2     1  UNL1        0.2637
      4 C         143.0647  143.6639  160.9760 C.2     1  UNL1        0.2821
      5 N         144.3058  142.8519  161.2012 N.2     1  UNL1       -0.0268
      6 C         144.4218  141.9809  162.4168 C.2     1  UNL1        0.3760
      7 N         145.5145  141.0750  162.9019 N.2     1  UNL1       -0.0306
      8 C         145.0649  140.4560  164.1921 C.2     1  UNL1        0.2361
      9 C         143.6943  140.9793  164.5044 C.2     1  UNL1        0.0583
     10 C         143.2968  141.9217  163.4072 C.2     1  UNL1        0.1203
     11 C         142.0558  142.7336  163.1820 C.3     1  UNL1        0.2596
     12 N         140.7925  142.8778  163.9779 N.pl3   1  UNL1       -0.1887
     13 C         140.4807  142.1836  165.2705 C.3     1  UNL1        0.1605
     14 C         141.0140  142.7287  166.5622 C.3     1  UNL1        0.0466
     15 C         140.7022  142.0345  167.8549 C.3     1  UNL1        0.0052
     16 C         139.8571  140.7953  167.8558 C.3     1  UNL1        0.0154
     17 C         139.3238  140.2502  166.5641 C.3     1  UNL1        0.0052
     18 C         139.6356  140.9443  165.2715 C.3     1  UNL1        0.0466
     19 C         139.5454  140.1011  169.1484 C.3     1  UNL1        0.1054
     20 C         140.1193  140.6175  170.4345 C.1     1  UNL1        0.0731
     21 N         140.6932  141.1340  171.7205 N.1     1  UNL1       -0.1959
     22 C         138.3024  144.7051  165.1141 C.3     1  UNL1        0.0450
     23 C         138.5297  144.2725  163.6959 C.3     1  UNL1        0.2165
     24 O         137.3911  144.2746  162.7195 O.3     1  UNL1       -0.3737
     25 H         137.7064  143.9697  161.8543 H       1  UNL1        0.2111
@<TRIPOS>BOND
     1    23    22    1
     2    23    24    1
     3    23     1    1
     4     1     2    2
     5     2     3    1
     6     3     4    2
     7     4     5    1
     8     5     6    2
     9     6     7    1
    10     7     8    2
    11     8     9    1
    12     9    10    2
    13    10    11    1
    14    11    12    1
    15    13    12    1
    16    13    14    1
    17    14    15    1
    18    15    16    1
    19    16    19    1
    20    19    20    1
    21    20    21    3
    22    16    17    1
    23    17    18    1
    24    12     1    1
    25    18    13    1
    26    11     3    1
    27    10     6    1
    28    24    25    1
@<TRIPOS>MOLECULE
*****
 25 28 0 0 0
SMALL
GASTEIGER

@<TRIPOS>ATOM
      1 C         139.4817  143.2099  163.4884 C.2     1  UNL1        0.3270
      2 N         138.8688  142.7136  162.2124 N.2     1  UNL1       -0.0380
      3 C         139.1958  141.2559  162.0772 C.2     1  UNL1        0.2637
      4 C         138.8568  140.2449  161.0225 C.2     1  UNL1        0.2821
      5 N         139.3328  138.8290  161.1601 N.2     1  UNL1       -0.0268
      6 C         140.1479  138.4244  162.3525 C.2     1  UNL1        0.3760
      7 N         140.7520  137.1123  162.7568 N.2     1  UNL1       -0.0306
      8 C         141.4645  137.3126  164.0615 C.2     1  UNL1        0.2361
      9 C         141.3007  138.7484  164.4635 C.2     1  UNL1        0.0583
     10 C         140.4870  139.4355  163.4073 C.2     1  UNL1        0.1203
     11 C         140.0109  140.8513  163.2697 C.3     1  UNL1        0.2596
     12 N         140.1877  142.0589  164.1418 N.pl3   1  UNL1       -0.1887
     13 C         140.9384  142.1071  165.4394 C.3     1  UNL1        0.1605
     14 C         140.2075  141.9219  166.7361 C.3     1  UNL1        0.0466
     15 C         140.9584  141.9701  168.0338 C.3     1  UNL1        0.0052
     16 C         142.4401  142.2034  168.0348 C.3     1  UNL1        0.0154
     17 C         143.1710  142.3885  166.7381 C.3     1  UNL1        0.0052
     18 C         142.4202  142.3404  165.4404 C.3     1  UNL1        0.0466
     19 C         143.1908  142.2516  169.3324 C.3     1  UNL1        0.1054
     20 C         142.4423  142.2552  170.6323 C.1     1  UNL1        0.0731
     21 N         141.6938  142.2588  171.9322 N.1     1  UNL1       -0.1959
     22 C         138.5976  144.9031  165.2494 C.3     1  UNL1        0.0450
     23 C         139.4027  144.6110  164.0179 C.3     1  UNL1        0.2165
     24 O         140.1287  145.7201  163.3159 O.3     1  UNL1       -0.3737
     25 H         140.5964  145.3632  162.5447 H       1  UNL1        0.2111
@<TRIPOS>BOND
     1    23    22    1
     2    23    24    1
     3    23     1    1
     4     1     2    2
     5     2     3    1
     6     3     4    2
     7     4     5    1
     8     5     6    2
     9     6     7    1
    10     7     8    2
    11     8     9    1
    12     9    10    2
    13    10    11    1
    14    11    12    1
    15    13    12    1
    16    13    14    1
    17    14    15    1
    18    15    16    1
    19    16    19    1
    20    19    20    1
    21    20    21    3
    22    16    17    1
    23    17    18    1
    24    12     1    1
    25    18    13    1
    26    11     3    1
    27    10     6    1
    28    24    25    1
@<TRIPOS>MOLECULE
*****
 25 28 0 0 0
SMALL
GASTEIGER

@<TRIPOS>ATOM
      1 C         140.8155  139.1968  163.2374 C.2     1  UNL1        0.3270
      2 N         140.7063  139.5764  161.7904 N.2     1  UNL1       -0.0380
      3 C         139.9502  140.8692  161.7060 C.2     1  UNL1        0.2637
      4 C         139.5416  141.7187  160.5393 C.2     1  UNL1        0.2821
      5 N         138.7747  142.9876  160.7674 N.2     1  UNL1       -0.0268
      6 C         138.4165  143.4068  162.1624 C.2     1  UNL1        0.3760
      7 N         137.6725  144.5963  162.6930 N.2     1  UNL1       -0.0306
      8 C         137.6213  144.4819  164.1878 C.2     1  UNL1        0.2361
      9 C         138.3337  143.2217  164.5809 C.2     1  UNL1        0.0583
     10 C         138.8252  142.5573  163.3291 C.2     1  UNL1        0.1203
     11 C         139.5920  141.2885  163.1009 C.3     1  UNL1        0.2596
     12 N         140.1268  140.2549  164.0474 N.pl3   1  UNL1       -0.1887
     13 C         139.9958  140.2758  165.5415 C.3     1  UNL1        0.1605
     14 C         140.9318  141.1100  166.3649 C.3     1  UNL1        0.0466
     15 C         140.8008  141.1308  167.8590 C.3     1  UNL1        0.0052
     16 C         139.7339  140.3174  168.5298 C.3     1  UNL1        0.0154
     17 C         138.7979  139.4832  167.7064 C.3     1  UNL1        0.0052
     18 C         138.9288  139.4623  166.2123 C.3     1  UNL1        0.0466
     19 C         139.6029  140.3383  170.0239 C.3     1  UNL1        0.1054
     20 C         140.5263  141.1878  170.8459 C.1     1  UNL1        0.0731
     21 N         141.4497  142.0373  171.6679 N.1     1  UNL1       -0.1959
     22 C         142.4684  138.0969  164.9131 C.3     1  UNL1        0.0450
     23 C         141.4941  137.9738  163.7793 C.3     1  UNL1        0.2165
     24 O         141.1985  136.6277  163.1873 O.3     1  UNL1       -0.3737
     25 H         140.5530  136.7247  162.4698 H       1  UNL1        0.2111
@<TRIPOS>BOND
     1    23    22    1
     2    23    24    1
     3    23     1    1
     4     1     2    2
     5     2     3    1
     6     3     4    2
     7     4     5    1
     8     5     6    2
     9     6     7    1
    10     7     8    2
    11     8     9    1
    12     9    10    2
    13    10    11    1
    14    11    12    1
    15    13    12    1
    16    13    14    1
    17    14    15    1
    18    15    16    1
    19    16    19    1
    20    19    20    1
    21    20    21    3
    22    16    17    1
    23    17    18    1
    24    12     1    1
    25    18    13    1
    26    11     3    1
    27    10     6    1
    28    24    25    1
@<TRIPOS>MOLECULE
*****
 25 28 0 0 0
SMALL
GASTEIGER

@<TRIPOS>ATOM
      1 C         138.6450  139.8547  164.6148 C.2     1  UNL1        0.3270
      2 N         137.9124  140.1475  163.3390 N.2     1  UNL1       -0.0380
      3 C         138.4022  141.4649  162.8150 C.2     1  UNL1        0.2637
      4 C         138.0392  142.2571  161.5942 C.2     1  UNL1        0.2821
      5 N         138.7116  143.5707  161.3251 N.2     1  UNL1       -0.0268
      6 C         139.7470  144.0921  162.2770 C.2     1  UNL1        0.3760
      7 N         140.5725  145.3445  162.2747 N.2     1  UNL1       -0.0306
      8 C         141.4457  145.3262  163.4942 C.2     1  UNL1        0.2361
      9 C         141.1599  144.0626  164.2502 C.2     1  UNL1        0.0583
     10 C         140.1100  143.2999  163.4980 C.2     1  UNL1        0.1203
     11 C         139.4376  141.9863  163.7670 C.3     1  UNL1        0.2596
     12 N         139.5877  140.9911  164.8792 N.pl3   1  UNL1       -0.1887
     13 C         140.5171  141.1113  166.0504 C.3     1  UNL1        0.1605
     14 C         141.7088  140.2066  166.1580 C.3     1  UNL1        0.0466
     15 C         142.6383  140.3268  167.3292 C.3     1  UNL1        0.0052
     16 C         142.3761  141.3516  168.3927 C.3     1  UNL1        0.0154
     17 C         141.1845  142.2563  168.2850 C.3     1  UNL1        0.0052
     18 C         140.2550  142.1361  167.1139 C.3     1  UNL1        0.0466
     19 C         143.3056  141.4718  169.5638 C.3     1  UNL1        0.1054
     20 C         143.3732  142.7540  170.3392 C.1     1  UNL1        0.0731
     21 N         143.4409  144.0363  171.1146 N.1     1  UNL1       -0.1959
     22 C         137.8026  138.7590  166.8147 C.3     1  UNL1        0.0450
     23 C         138.4664  138.6389  165.4749 C.3     1  UNL1        0.2165
     24 O         138.9515  137.3030  164.9954 O.3     1  UNL1       -0.3737
     25 H         139.3526  137.4007  164.1176 H       1  UNL1        0.2111
@<TRIPOS>BOND
     1    23    22    1
     2    23    24    1
     3    23     1    1
     4     1     2    2
     5     2     3    1
     6     3     4    2
     7     4     5    1
     8     5     6    2
     9     6     7    1
    10     7     8    2
    11     8     9    1
    12     9    10    2
    13    10    11    1
    14    11    12    1
    15    13    12    1
    16    13    14    1
    17    14    15    1
    18    15    16    1
    19    16    19    1
    20    19    20    1
    21    20    21    3
    22    16    17    1
    23    17    18    1
    24    12     1    1
    25    18    13    1
    26    11     3    1
    27    10     6    1
    28    24    25    1
@<TRIPOS>MOLECULE
*****
 25 28 0 0 0
SMALL
GASTEIGER

@<TRIPOS>ATOM
      1 C         139.6286  139.4559  166.4519 C.2     1  UNL1        0.3270
      2 N         138.7507  139.3496  167.6634 N.2     1  UNL1       -0.0380
      3 C         139.4050  140.1107  168.7782 C.2     1  UNL1        0.2637
      4 C         138.9988  140.3531  170.2016 C.2     1  UNL1        0.2821
      5 N         139.8749  141.1723  171.1025 N.2     1  UNL1       -0.0268
      6 C         141.1571  141.7490  170.5798 C.2     1  UNL1        0.3760
      7 N         142.2167  142.5904  171.2274 N.2     1  UNL1       -0.0306
      8 C         143.2778  142.8679  170.2041 C.2     1  UNL1        0.2361
      9 C         142.8739  142.1981  168.9242 C.2     1  UNL1        0.0583
     10 C         141.5633  141.5066  169.1564 C.2     1  UNL1        0.1203
     11 C         140.6872  140.6874  168.2556 C.3     1  UNL1        0.2596
     12 N         140.8254  140.2828  166.8178 N.pl3   1  UNL1       -0.1887
     13 C         141.9611  140.6419  165.9061 C.3     1  UNL1        0.1605
     14 C         142.0382  142.0159  165.3093 C.3     1  UNL1        0.0466
     15 C         143.1739  142.3750  164.3976 C.3     1  UNL1        0.0052
     16 C         144.2324  141.3600  164.0825 C.3     1  UNL1        0.0154
     17 C         144.1554  139.9860  164.6793 C.3     1  UNL1        0.0052
     18 C         143.0197  139.6269  165.5910 C.3     1  UNL1        0.0466
     19 C         145.3681  141.7191  163.1708 C.3     1  UNL1        0.1054
     20 C         145.0907  142.1498  161.7610 C.1     1  UNL1        0.0731
     21 N         144.8133  142.5805  160.3512 N.1     1  UNL1       -0.1959
     22 C         140.0430  137.5688  164.7149 C.3     1  UNL1        0.0450
     23 C         139.3573  138.8430  165.1100 C.3     1  UNL1        0.2165
     24 O         138.4002  139.5044  164.1631 O.3     1  UNL1       -0.3737
     25 H         138.0481  140.3112  164.5704 H       1  UNL1        0.2111
@<TRIPOS>BOND
     1    23    22    1
     2    23    24    1
     3    23     1    1
     4     1     2    2
     5     2     3    1
     6     3     4    2
     7     4     5    1
     8     5     6    2
     9     6     7    1
    10     7     8    2
    11     8     9    1
    12     9    10    2
    13    10    11    1
    14    11    12    1
    15    13    12    1
    16    13    14    1
    17    14    15    1
    18    15    16    1
    19    16    19    1
    20    19    20    1
    21    20    21    3
    22    16    17    1
    23    17    18    1
    24    12     1    1
    25    18    13    1
    26    11     3    1
    27    10     6    1
    28    24    25    1
@<TRIPOS>MOLECULE
*****
 25 28 0 0 0
SMALL
GASTEIGER

@<TRIPOS>ATOM
      1 C         141.1807  139.3018  162.4517 C.2     1  UNL1        0.3270
      2 N         141.6019  139.7061  161.0700 N.2     1  UNL1       -0.0380
      3 C         142.2743  141.0438  161.1631 C.2     1  UNL1        0.2637
      4 C         142.8909  141.9317  160.1233 C.2     1  UNL1        0.2821
      5 N         143.5020  143.2421  160.5227 N.2     1  UNL1       -0.0268
      6 C         143.4963  143.6645  161.9620 C.2     1  UNL1        0.3760
      7 N         144.0192  144.8904  162.6502 N.2     1  UNL1       -0.0306
      8 C         143.7257  144.7601  164.1155 C.2     1  UNL1        0.2361
      9 C         143.0214  143.4537  164.3327 C.2     1  UNL1        0.0583
     10 C         142.8796  142.7766  163.0018 C.2     1  UNL1        0.1203
     11 C         142.2686  141.4662  162.6023 C.3     1  UNL1        0.2596
     12 N         141.5927  140.3896  163.3987 N.pl3   1  UNL1       -0.1887
     13 C         141.3683  140.3991  164.8818 C.3     1  UNL1        0.1605
     14 C         140.1306  141.0287  165.4490 C.3     1  UNL1        0.0466
     15 C         139.9062  141.0382  166.9321 C.3     1  UNL1        0.0052
     16 C         140.9194  140.4182  167.8480 C.3     1  UNL1        0.0154
     17 C         142.1571  139.7886  167.2808 C.3     1  UNL1        0.0052
     18 C         142.3816  139.7791  165.7977 C.3     1  UNL1        0.0466
     19 C         140.6950  140.4277  169.3310 C.3     1  UNL1        0.1054
     20 C         139.3278  140.1548  169.8844 C.1     1  UNL1        0.0731
     21 N         137.9606  139.8818  170.4379 N.1     1  UNL1       -0.1959
     22 C         139.0057  138.0569  163.1368 C.3     1  UNL1        0.0450
     23 C         140.4719  138.0326  162.8214 C.3     1  UNL1        0.2165
     24 O         141.2294  136.7391  162.8756 O.3     1  UNL1       -0.3737
     25 H         142.1583  136.8984  162.6461 H       1  UNL1        0.2111
@<TRIPOS>BOND
     1    23    22    1
     2    23    24    1
     3    23     1    1
     4     1     2    2
     5     2     3    1
     6     3     4    2
     7     4     5    1
     8     5     6    2
     9     6     7    1
    10     7     8    2
    11     8     9    1
    12     9    10    2
    13    10    11    1
    14    11    12    1
    15    13    12    1
    16    13    14    1
    17    14    15    1
    18    15    16    1
    19    16    19    1
    20    19    20    1
    21    20    21    3
    22    16    17    1
    23    17    18    1
    24    12     1    1
    25    18    13    1
    26    11     3    1
    27    10     6    1
    28    24    25    1
@<TRIPOS>MOLECULE
*****
 25 28 0 0 0
SMALL
GASTEIGER

@<TRIPOS>ATOM
      1 C         139.9724  139.3701  164.0571 C.2     1  UNL1        0.3270
      2 N         140.0300  139.2474  162.5633 N.2     1  UNL1       -0.0380
      3 C         141.3447  139.8038  162.1028 C.2     1  UNL1        0.2637
      4 C         141.9520  139.9459  160.7387 C.2     1  UNL1        0.2821
      5 N         143.3142  140.5545  160.5837 N.2     1  UNL1       -0.0268
      6 C         144.0691  141.0211  161.7930 C.2     1  UNL1        0.3760
      7 N         145.4192  141.6554  161.9504 N.2     1  UNL1       -0.0306
      8 C         145.6464  141.9054  163.4118 C.2     1  UNL1        0.2361
      9 C         144.4366  141.4255  164.1577 C.2     1  UNL1        0.0583
     10 C         143.4618  140.8790  163.1572 C.2     1  UNL1        0.1203
     11 C         142.0996  140.2704  163.3121 C.3     1  UNL1        0.2596
     12 N         141.2515  140.0024  164.5199 N.pl3   1  UNL1       -0.1887
     13 C         141.6181  140.3122  165.9410 C.3     1  UNL1        0.1605
     14 C         141.3471  141.6753  166.5054 C.3     1  UNL1        0.0466
     15 C         141.7137  141.9850  167.9266 C.3     1  UNL1        0.0052
     16 C         142.3513  140.9317  168.7834 C.3     1  UNL1        0.0154
     17 C         142.6222  139.5686  168.2190 C.3     1  UNL1        0.0052
     18 C         142.2557  139.2588  166.7979 C.3     1  UNL1        0.0466
     19 C         142.7179  141.2415  170.2045 C.3     1  UNL1        0.1054
     20 C         141.6646  141.7048  171.1668 C.1     1  UNL1        0.0731
     21 N         140.6114  142.1681  172.1291 N.1     1  UNL1       -0.1959
     22 C         138.7051  137.4976  165.3368 C.3     1  UNL1        0.0450
     23 C         138.8354  138.9367  164.9342 C.3     1  UNL1        0.2165
     24 O         137.8286  139.9423  165.4085 O.3     1  UNL1       -0.3737
     25 H         138.0577  140.8182  165.0603 H       1  UNL1        0.2111
@<TRIPOS>BOND
     1    23    22    1
     2    23    24    1
     3    23     1    1
     4     1     2    2
     5     2     3    1
     6     3     4    2
     7     4     5    1
     8     5     6    2
     9     6     7    1
    10     7     8    2
    11     8     9    1
    12     9    10    2
    13    10    11    1
    14    11    12    1
    15    13    12    1
    16    13    14    1
    17    14    15    1
    18    15    16    1
    19    16    19    1
    20    19    20    1
    21    20    21    3
    22    16    17    1
    23    17    18    1
    24    12     1    1
    25    18    13    1
    26    11     3    1
    27    10     6    1
    28    24    25    1
