@<TRIPOS>MOLECULE
*****
 30 32 0 0 0
SMALL
GASTEIGER

@<TRIPOS>ATOM
      1 O         143.3433  139.4493  166.2194 O.3     1  UNL1       -0.4776
      2 C         139.3837  139.5335  166.4732 C.ar    1  UNL1       -0.0191
      3 C         140.7649  139.3914  165.9057 C.ar    1  UNL1        0.0342
      4 C         141.9621  139.5913  166.7870 C.ar    1  UNL1        0.1555
      5 C         141.7781  139.9332  168.2359 C.ar    1  UNL1        0.1151
      6 N         142.9753  140.1331  169.1172 N.ar    1  UNL1       -0.2408
      7 C         142.7913  140.4750  170.5660 C.ar    1  UNL1        0.0989
      8 C         141.4101  140.6170  171.1336 C.ar    1  UNL1        0.0207
      9 C         140.2129  140.4172  170.2523 C.ar    1  UNL1        0.0032
     10 C         140.3969  140.0753  168.8035 C.ar    1  UNL1        0.0204
     11 C         139.1997  139.8754  167.9221 C.ar    1  UNL1       -0.0026
     12 C         138.1864  139.3336  165.5919 C.3     1  UNL1        0.0265
     13 C         138.1410  139.9679  164.2334 C.3     1  UNL1        0.0047
     14 C         138.8643  137.7228  163.1442 C.3     1  UNL1        0.0000
     15 C         138.3773  139.1351  163.0084 C.3     1  UNL1        0.0003
     16 C         143.7313  140.2156  164.9897 C.3     1  UNL1        0.1688
     17 C         144.0127  139.4865  163.7093 C.3     1  UNL1        0.0609
     18 C         144.4007  140.2528  162.4796 C.3     1  UNL1        0.0758
     19 N         144.5073  141.7482  162.5302 N.3     1  UNL1       -0.2724
     20 C         144.2259  142.4772  163.8105 C.3     1  UNL1        0.0758
     21 C         143.8379  141.7109  165.0403 C.3     1  UNL1        0.0609
     22 C         144.8953  142.5145  161.3005 C.3     1  UNL1        0.0738
     23 C         143.9043  142.7028  160.1903 C.3     1  UNL1        0.0409
     24 C         142.4336  142.6533  160.4813 C.3     1  UNL1        0.1306
     25 C         141.6271  141.4582  160.0677 C.3     1  UNL1        0.0253
     26 S         141.7695  143.7989  161.1860 S.O2    1  UNL1       -0.0116
     27 O         142.2965  144.7436  160.1469 O.2     1  UNL1       -0.1730
     28 O         141.2425  142.8542  162.2252 O.2     1  UNL1       -0.1730
     29 C         141.1054  144.9445  161.8907 C.3     1  UNL1        0.1508
     30 C         141.4890  145.2813  163.3012 C.3     1  UNL1        0.0271
@<TRIPOS>BOND
     1    14    15    1
     2    15    13    1
     3    13    12    1
     4    12     2    1
     5     2     3   ar
     6     3     4   ar
     7     4     1    1
     8     1    16    1
     9    16    17    1
    10    17    18    1
    11    18    19    1
    12    19    22    1
    13    22    23    1
    14    23    24    1
    15    24    25    1
    16    24    26    1
    17    26    27    2
    18    26    28    2
    19    26    29    1
    20    29    30    1
    21    19    20    1
    22    20    21    1
    23     4     5   ar
    24     5     6   ar
    25     6     7   ar
    26     7     8   ar
    27     8     9   ar
    28     9    10   ar
    29    10    11   ar
    30    11     2   ar
    31    21    16    1
    32    10     5   ar
@<TRIPOS>MOLECULE
*****
 30 32 0 0 0
SMALL
GASTEIGER

@<TRIPOS>ATOM
      1 O         142.4036  138.3459  165.7699 O.3     1  UNL1       -0.4776
      2 C         142.6206  140.9389  168.7664 C.ar    1  UNL1       -0.0191
      3 C         142.3774  139.6693  168.0055 C.ar    1  UNL1        0.0342
      4 C         142.6467  139.6155  166.5309 C.ar    1  UNL1        0.1555
      5 C         143.1593  140.8312  165.8171 C.ar    1  UNL1        0.1151
      6 N         143.4286  140.7773  164.3425 N.ar    1  UNL1       -0.2408
      7 C         143.9410  141.9931  163.6288 C.ar    1  UNL1        0.0989
      8 C         144.1842  143.2626  164.3898 C.ar    1  UNL1        0.0207
      9 C         143.9149  143.3165  165.8644 C.ar    1  UNL1        0.0032
     10 C         143.4024  142.1008  166.5781 C.ar    1  UNL1        0.0204
     11 C         143.1331  142.1546  168.0528 C.ar    1  UNL1       -0.0026
     12 C         142.3513  140.9927  170.2411 C.3     1  UNL1        0.0265
     13 C         141.1518  141.7303  170.7580 C.3     1  UNL1        0.0047
     14 C         139.0703  140.4629  169.8574 C.3     1  UNL1        0.0000
     15 C         139.8728  141.7248  169.9744 C.3     1  UNL1        0.0003
     16 C         141.2795  138.2685  164.7797 C.3     1  UNL1        0.1688
     17 C         139.8967  138.6897  165.1804 C.3     1  UNL1        0.0609
     18 C         138.7726  138.6123  164.1903 C.3     1  UNL1        0.0758
     19 N         139.0313  138.1139  162.7994 N.3     1  UNL1       -0.2724
     20 C         140.4141  137.6928  162.3986 C.3     1  UNL1        0.0758
     21 C         141.5382  137.7701  163.3888 C.3     1  UNL1        0.0609
     22 C         137.9073  138.0365  161.8092 C.3     1  UNL1        0.0738
     23 C         137.3360  139.2937  161.2234 C.3     1  UNL1        0.0409
     24 C         138.2511  140.3596  160.6977 C.3     1  UNL1        0.1306
     25 C         138.6725  140.3432  159.2582 C.3     1  UNL1        0.0253
     26 S         138.7450  141.4417  161.6115 S.O2    1  UNL1       -0.0116
     27 O         137.3620  141.6011  162.1702 O.2     1  UNL1       -0.1730
     28 O         140.1279  141.2824  161.0529 O.2     1  UNL1       -0.1730
     29 C         139.2388  142.5239  162.5254 C.3     1  UNL1        0.1508
     30 C         140.0761  142.1731  163.7194 C.3     1  UNL1        0.0271
@<TRIPOS>BOND
     1    14    15    1
     2    15    13    1
     3    13    12    1
     4    12     2    1
     5     2     3   ar
     6     3     4   ar
     7     4     1    1
     8     1    16    1
     9    16    17    1
    10    17    18    1
    11    18    19    1
    12    19    22    1
    13    22    23    1
    14    23    24    1
    15    24    25    1
    16    24    26    1
    17    26    27    2
    18    26    28    2
    19    26    29    1
    20    29    30    1
    21    19    20    1
    22    20    21    1
    23     4     5   ar
    24     5     6   ar
    25     6     7   ar
    26     7     8   ar
    27     8     9   ar
    28     9    10   ar
    29    10    11   ar
    30    11     2   ar
    31    21    16    1
    32    10     5   ar
@<TRIPOS>MOLECULE
*****
 30 32 0 0 0
SMALL
GASTEIGER

@<TRIPOS>ATOM
      1 O         138.7656  140.5548  165.9313 O.3     1  UNL1       -0.4776
      2 C         141.1175  140.0489  169.0878 C.ar    1  UNL1       -0.0191
      3 C         139.9235  140.4044  168.2523 C.ar    1  UNL1        0.0342
      4 C         139.9596  140.1993  166.7668 C.ar    1  UNL1        0.1555
      5 C         141.1898  139.6387  166.1168 C.ar    1  UNL1        0.1151
      6 N         141.2259  139.4336  164.6313 N.ar    1  UNL1       -0.2408
      7 C         142.4560  138.8730  163.9814 C.ar    1  UNL1        0.0989
      8 C         143.6500  138.5175  164.8169 C.ar    1  UNL1        0.0207
      9 C         143.6139  138.7226  166.3023 C.ar    1  UNL1        0.0032
     10 C         142.3838  139.2832  166.9523 C.ar    1  UNL1        0.0204
     11 C         142.3476  139.4883  168.4378 C.ar    1  UNL1       -0.0026
     12 C         141.0813  140.2540  170.5733 C.3     1  UNL1        0.0265
     13 C         140.8630  141.6274  171.1356 C.3     1  UNL1        0.0047
     14 C         140.5011  143.8002  169.7580 C.3     1  UNL1        0.0000
     15 C         141.4234  142.8254  170.4281 C.3     1  UNL1        0.0003
     16 C         138.7955  141.7769  165.0622 C.3     1  UNL1        0.1688
     17 C         139.5994  142.9733  165.4776 C.3     1  UNL1        0.0609
     18 C         139.6292  144.1954  164.6084 C.3     1  UNL1        0.0758
     19 N         138.8553  144.2212  163.3237 N.3     1  UNL1       -0.2724
     20 C         138.0514  143.0249  162.9083 C.3     1  UNL1        0.0758
     21 C         138.0215  141.8027  163.7775 C.3     1  UNL1        0.0609
     22 C         138.8851  145.4433  162.4545 C.3     1  UNL1        0.0738
     23 C         140.1806  145.9077  161.8577 C.3     1  UNL1        0.0409
     24 C         140.9013  145.0443  160.8652 C.3     1  UNL1        0.1306
     25 C         140.7518  145.3057  159.3958 C.3     1  UNL1        0.0253
     26 S         141.7715  143.9194  161.3422 S.O2    1  UNL1       -0.0116
     27 O         142.7051  144.9093  161.9735 O.2     1  UNL1       -0.1730
     28 O         140.8379  142.9295  160.7108 O.2     1  UNL1       -0.1730
     29 C         142.6417  142.7946  161.8191 C.3     1  UNL1        0.1508
     30 C         142.6770  142.4395  163.2760 C.3     1  UNL1        0.0271
@<TRIPOS>BOND
     1    14    15    1
     2    15    13    1
     3    13    12    1
     4    12     2    1
     5     2     3   ar
     6     3     4   ar
     7     4     1    1
     8     1    16    1
     9    16    17    1
    10    17    18    1
    11    18    19    1
    12    19    22    1
    13    22    23    1
    14    23    24    1
    15    24    25    1
    16    24    26    1
    17    26    27    2
    18    26    28    2
    19    26    29    1
    20    29    30    1
    21    19    20    1
    22    20    21    1
    23     4     5   ar
    24     5     6   ar
    25     6     7   ar
    26     7     8   ar
    27     8     9   ar
    28     9    10   ar
    29    10    11   ar
    30    11     2   ar
    31    21    16    1
    32    10     5   ar
@<TRIPOS>MOLECULE
*****
 30 32 0 0 0
SMALL
GASTEIGER

@<TRIPOS>ATOM
      1 O         139.0164  140.8894  165.9801 O.3     1  UNL1       -0.4776
      2 C         142.5943  139.1782  165.8366 C.ar    1  UNL1       -0.0191
      3 C         141.2875  139.7698  165.3982 C.ar    1  UNL1        0.0342
      4 C         140.3233  140.2979  166.4186 C.ar    1  UNL1        0.1555
      5 C         140.6659  140.2345  167.8776 C.ar    1  UNL1        0.1151
      6 N         139.7017  140.7626  168.8981 N.ar    1  UNL1       -0.2408
      7 C         140.0443  140.6992  170.3570 C.ar    1  UNL1        0.0989
      8 C         141.3512  140.1076  170.7955 C.ar    1  UNL1        0.0207
      9 C         142.3154  139.5795  169.7750 C.ar    1  UNL1        0.0032
     10 C         141.9727  139.6429  168.3161 C.ar    1  UNL1        0.0204
     11 C         142.9369  139.1148  167.2956 C.ar    1  UNL1       -0.0026
     12 C         143.5585  138.6501  164.8161 C.3     1  UNL1        0.0265
     13 C         144.7995  139.4250  164.4852 C.3     1  UNL1        0.0047
     14 C         145.8338  141.6453  163.6188 C.3     1  UNL1        0.0000
     15 C         144.7344  140.9158  164.3324 C.3     1  UNL1        0.0003
     16 C         139.0004  142.0716  165.0571 C.3     1  UNL1        0.1688
     17 C         139.8768  143.2558  165.3397 C.3     1  UNL1        0.0609
     18 C         139.8608  144.4380  164.4166 C.3     1  UNL1        0.0758
     19 N         138.9684  144.4361  163.2109 N.3     1  UNL1       -0.2724
     20 C         138.0920  143.2521  162.9283 C.3     1  UNL1        0.0758
     21 C         138.1080  142.0698  163.8514 C.3     1  UNL1        0.0609
     22 C         138.9524  145.6183  162.2879 C.3     1  UNL1        0.0738
     23 C         140.1769  145.9674  161.4949 C.3     1  UNL1        0.0409
     24 C         140.6023  145.0967  160.3500 C.3     1  UNL1        0.1306
     25 C         140.2749  145.4964  158.9418 C.3     1  UNL1        0.0253
     26 S         141.3552  143.8263  160.6132 S.O2    1  UNL1       -0.0116
     27 O         142.5011  144.6202  161.1671 O.2     1  UNL1       -0.1730
     28 O         140.2094  143.0325  160.0593 O.2     1  UNL1       -0.1730
     29 C         142.1081  142.5559  160.8765 C.3     1  UNL1        0.1508
     30 C         143.6045  142.5362  160.7750 C.3     1  UNL1        0.0271
@<TRIPOS>BOND
     1    14    15    1
     2    15    13    1
     3    13    12    1
     4    12     2    1
     5     2     3   ar
     6     3     4   ar
     7     4     1    1
     8     1    16    1
     9    16    17    1
    10    17    18    1
    11    18    19    1
    12    19    22    1
    13    22    23    1
    14    23    24    1
    15    24    25    1
    16    24    26    1
    17    26    27    2
    18    26    28    2
    19    26    29    1
    20    29    30    1
    21    19    20    1
    22    20    21    1
    23     4     5   ar
    24     5     6   ar
    25     6     7   ar
    26     7     8   ar
    27     8     9   ar
    28     9    10   ar
    29    10    11   ar
    30    11     2   ar
    31    21    16    1
    32    10     5   ar
@<TRIPOS>MOLECULE
*****
 30 32 0 0 0
SMALL
GASTEIGER

@<TRIPOS>ATOM
      1 O         141.8256  142.9128  166.1313 O.3     1  UNL1       -0.4776
      2 C         139.1692  140.0231  166.7170 C.ar    1  UNL1       -0.0191
      3 C         140.0132  141.0541  166.0281 C.ar    1  UNL1        0.0342
      4 C         140.9816  141.8817  166.8202 C.ar    1  UNL1        0.1555
      5 C         141.1059  141.6782  168.3012 C.ar    1  UNL1        0.1151
      6 N         142.0742  142.5058  169.0932 N.ar    1  UNL1       -0.2408
      7 C         142.1985  142.3023  170.5741 C.ar    1  UNL1        0.0989
      8 C         141.3544  141.2713  171.2629 C.ar    1  UNL1        0.0207
      9 C         140.3861  140.4437  170.4709 C.ar    1  UNL1        0.0032
     10 C         140.2618  140.6472  168.9900 C.ar    1  UNL1        0.0204
     11 C         139.2935  139.8196  168.1978 C.ar    1  UNL1       -0.0026
     12 C         138.2008  139.1955  165.9248 C.3     1  UNL1        0.0265
     13 C         138.5948  137.8275  165.4521 C.3     1  UNL1        0.0047
     14 C         139.8852  137.6461  163.2045 C.3     1  UNL1        0.0000
     15 C         139.8807  137.6338  164.7045 C.3     1  UNL1        0.0003
     16 C         141.5257  143.3028  164.7144 C.3     1  UNL1        0.1688
     17 C         140.4557  144.3136  164.4251 C.3     1  UNL1        0.0609
     18 C         140.1558  144.7036  163.0081 C.3     1  UNL1        0.0758
     19 N         140.9257  144.0828  161.8804 N.3     1  UNL1       -0.2724
     20 C         141.9956  143.0721  162.1695 C.3     1  UNL1        0.0758
     21 C         142.2956  142.6820  163.5866 C.3     1  UNL1        0.0609
     22 C         140.6257  144.4728  160.4634 C.3     1  UNL1        0.0738
     23 C         140.3562  143.4144  159.4351 C.3     1  UNL1        0.0409
     24 C         139.0754  142.6350  159.4791 C.3     1  UNL1        0.1306
     25 C         138.1744  142.6049  158.2803 C.3     1  UNL1        0.0253
     26 S         138.6957  141.8856  160.7217 S.O2    1  UNL1       -0.0116
     27 O         139.7306  140.8453  160.4107 O.2     1  UNL1       -0.1730
     28 O         137.6608  142.9259  161.0328 O.2     1  UNL1       -0.1730
     29 C         138.3160  141.1363  161.9644 C.3     1  UNL1        0.1508
     30 C         137.5921  141.8408  163.0733 C.3     1  UNL1        0.0271
@<TRIPOS>BOND
     1    14    15    1
     2    15    13    1
     3    13    12    1
     4    12     2    1
     5     2     3   ar
     6     3     4   ar
     7     4     1    1
     8     1    16    1
     9    16    17    1
    10    17    18    1
    11    18    19    1
    12    19    22    1
    13    22    23    1
    14    23    24    1
    15    24    25    1
    16    24    26    1
    17    26    27    2
    18    26    28    2
    19    26    29    1
    20    29    30    1
    21    19    20    1
    22    20    21    1
    23     4     5   ar
    24     5     6   ar
    25     6     7   ar
    26     7     8   ar
    27     8     9   ar
    28     9    10   ar
    29    10    11   ar
    30    11     2   ar
    31    21    16    1
    32    10     5   ar
@<TRIPOS>MOLECULE
*****
 30 32 0 0 0
SMALL
GASTEIGER

@<TRIPOS>ATOM
      1 O         140.1483  139.3691  166.7900 O.3     1  UNL1       -0.4776
      2 C         143.0445  141.9914  166.0936 C.ar    1  UNL1       -0.0191
      3 C         141.9974  140.9421  165.8647 C.ar    1  UNL1        0.0342
      4 C         141.1954  140.4185  167.0190 C.ar    1  UNL1        0.1555
      5 C         141.4404  140.9442  168.4024 C.ar    1  UNL1        0.1151
      6 N         140.6384  140.4206  169.5567 N.ar    1  UNL1       -0.2408
      7 C         140.8835  140.9463  170.9400 C.ar    1  UNL1        0.0989
      8 C         141.9306  141.9957  171.1689 C.ar    1  UNL1        0.0207
      9 C         142.7326  142.5193  170.0146 C.ar    1  UNL1        0.0032
     10 C         142.4875  141.9936  168.6313 C.ar    1  UNL1        0.0204
     11 C         143.2896  142.5172  167.4769 C.ar    1  UNL1       -0.0026
     12 C         143.8466  142.5151  164.9392 C.3     1  UNL1        0.0265
     13 C         144.2639  143.9555  164.9080 C.3     1  UNL1        0.0047
     14 C         142.2723  145.2511  163.8570 C.3     1  UNL1        0.0000
     15 C         143.7231  144.8703  163.8494 C.3     1  UNL1        0.0003
     16 C         139.5250  139.2147  165.4345 C.3     1  UNL1        0.1688
     17 C         139.8556  138.0209  164.5885 C.3     1  UNL1        0.0609
     18 C         139.2323  137.8665  163.2329 C.3     1  UNL1        0.0758
     19 N         138.2784  138.9059  162.7232 N.3     1  UNL1       -0.2724
     20 C         137.9478  140.0997  163.5691 C.3     1  UNL1        0.0758
     21 C         138.5711  140.2541  164.9248 C.3     1  UNL1        0.0609
     22 C         137.6551  138.7516  161.3676 C.3     1  UNL1        0.0738
     23 C         137.3303  139.9657  160.5488 C.3     1  UNL1        0.0409
     24 C         138.4170  140.6772  159.7986 C.3     1  UNL1        0.1306
     25 C         138.6166  140.4112  158.3360 C.3     1  UNL1        0.0253
     26 S         139.3041  141.6546  160.5111 S.O2    1  UNL1       -0.0116
     27 O         140.3963  140.6276  160.5601 O.2     1  UNL1       -0.1730
     28 O         138.2119  142.6816  160.4621 O.2     1  UNL1       -0.1730
     29 C         140.1912  142.6321  161.2236 C.3     1  UNL1        0.1508
     30 C         141.1016  142.1591  162.3179 C.3     1  UNL1        0.0271
@<TRIPOS>BOND
     1    14    15    1
     2    15    13    1
     3    13    12    1
     4    12     2    1
     5     2     3   ar
     6     3     4   ar
     7     4     1    1
     8     1    16    1
     9    16    17    1
    10    17    18    1
    11    18    19    1
    12    19    22    1
    13    22    23    1
    14    23    24    1
    15    24    25    1
    16    24    26    1
    17    26    27    2
    18    26    28    2
    19    26    29    1
    20    29    30    1
    21    19    20    1
    22    20    21    1
    23     4     5   ar
    24     5     6   ar
    25     6     7   ar
    26     7     8   ar
    27     8     9   ar
    28     9    10   ar
    29    10    11   ar
    30    11     2   ar
    31    21    16    1
    32    10     5   ar
@<TRIPOS>MOLECULE
*****
 30 32 0 0 0
SMALL
GASTEIGER

@<TRIPOS>ATOM
      1 O         143.5315  143.0440  165.1507 O.3     1  UNL1       -0.4776
      2 C         141.9686  139.4032  165.3788 C.ar    1  UNL1       -0.0191
      3 C         142.4841  140.6912  164.8084 C.ar    1  UNL1        0.0342
      4 C         143.0161  141.7560  165.7211 C.ar    1  UNL1        0.1555
      5 C         143.0327  141.5328  167.2044 C.ar    1  UNL1        0.1151
      6 N         143.5647  142.5976  168.1171 N.ar    1  UNL1       -0.2408
      7 C         143.5813  142.3744  169.6003 C.ar    1  UNL1        0.0989
      8 C         143.0658  141.0864  170.1707 C.ar    1  UNL1        0.0207
      9 C         142.5338  140.0216  169.2580 C.ar    1  UNL1        0.0032
     10 C         142.5172  140.2448  167.7748 C.ar    1  UNL1        0.0204
     11 C         141.9852  139.1800  166.8620 C.ar    1  UNL1       -0.0026
     12 C         141.4366  138.3384  164.4660 C.3     1  UNL1        0.0265
     13 C         139.9750  138.2993  164.1310 C.3     1  UNL1        0.0047
     14 C         138.2670  138.8723  166.0031 C.3     1  UNL1        0.0000
     15 C         138.9807  137.8553  165.1627 C.3     1  UNL1        0.0003
     16 C         143.0287  143.5311  163.8241 C.3     1  UNL1        0.1688
     17 C         143.6465  143.0228  162.5552 C.3     1  UNL1        0.0609
     18 C         143.1436  143.5100  161.2287 C.3     1  UNL1        0.0758
     19 N         142.0231  144.5055  161.1709 N.3     1  UNL1       -0.2724
     20 C         141.4053  145.0138  162.4397 C.3     1  UNL1        0.0758
     21 C         141.9081  144.5266  163.7664 C.3     1  UNL1        0.0609
     22 C         141.5202  144.9926  159.8444 C.3     1  UNL1        0.0738
     23 C         140.0775  144.8107  159.4764 C.3     1  UNL1        0.0409
     24 C         139.5545  143.4445  159.1451 C.3     1  UNL1        0.1306
     25 C         139.1985  143.1007  157.7292 C.3     1  UNL1        0.0253
     26 S         139.3874  142.4220  160.2299 S.O2    1  UNL1       -0.0116
     27 O         138.4025  143.3170  160.9218 O.2     1  UNL1       -0.1730
     28 O         140.3724  141.5270  159.5379 O.2     1  UNL1       -0.1730
     29 C         139.2204  141.3995  161.3146 C.3     1  UNL1        0.1508
     30 C         139.5664  141.7467  162.7322 C.3     1  UNL1        0.0271
@<TRIPOS>BOND
     1    14    15    1
     2    15    13    1
     3    13    12    1
     4    12     2    1
     5     2     3   ar
     6     3     4   ar
     7     4     1    1
     8     1    16    1
     9    16    17    1
    10    17    18    1
    11    18    19    1
    12    19    22    1
    13    22    23    1
    14    23    24    1
    15    24    25    1
    16    24    26    1
    17    26    27    2
    18    26    28    2
    19    26    29    1
    20    29    30    1
    21    19    20    1
    22    20    21    1
    23     4     5   ar
    24     5     6   ar
    25     6     7   ar
    26     7     8   ar
    27     8     9   ar
    28     9    10   ar
    29    10    11   ar
    30    11     2   ar
    31    21    16    1
    32    10     5   ar
@<TRIPOS>MOLECULE
*****
 30 32 0 0 0
SMALL
GASTEIGER

@<TRIPOS>ATOM
      1 O         143.3350  140.3369  166.5097 O.3     1  UNL1       -0.4776
      2 C         139.4754  139.4230  166.6432 C.ar    1  UNL1       -0.0191
      3 C         140.8842  139.5555  166.1455 C.ar    1  UNL1        0.0342
      4 C         141.9262  140.2043  167.0075 C.ar    1  UNL1        0.1555
      5 C         141.5595  140.7207  168.3673 C.ar    1  UNL1        0.1151
      6 N         142.6016  141.3696  169.2293 N.ar    1  UNL1       -0.2408
      7 C         142.2349  141.8859  170.5890 C.ar    1  UNL1        0.0989
      8 C         140.8261  141.7533  171.0867 C.ar    1  UNL1        0.0207
      9 C         139.7840  141.1045  170.2247 C.ar    1  UNL1        0.0032
     10 C         140.1508  140.5882  168.8650 C.ar    1  UNL1        0.0204
     11 C         139.1087  139.9393  168.0030 C.ar    1  UNL1       -0.0026
     12 C         138.4333  138.7741  165.7812 C.3     1  UNL1        0.0265
     13 C         138.7790  137.5584  164.9733 C.3     1  UNL1        0.0047
     14 C         140.3533  137.5887  162.9068 C.3     1  UNL1        0.0000
     15 C         138.9742  137.6738  163.4906 C.3     1  UNL1        0.0003
     16 C         143.6043  140.9861  165.1847 C.3     1  UNL1        0.1688
     17 C         143.4967  142.4757  165.0436 C.3     1  UNL1        0.0609
     18 C         143.7660  143.1249  163.7185 C.3     1  UNL1        0.0758
     19 N         144.1430  142.2847  162.5344 N.3     1  UNL1       -0.2724
     20 C         144.2506  140.7953  162.6755 C.3     1  UNL1        0.0758
     21 C         143.9813  140.1459  164.0006 C.3     1  UNL1        0.0609
     22 C         144.4123  142.9340  161.2093 C.3     1  UNL1        0.0738
     23 C         143.3332  142.9910  160.1689 C.3     1  UNL1        0.0409
     24 C         141.9290  143.3414  160.5632 C.3     1  UNL1        0.1306
     25 C         141.4287  144.7444  160.3873 C.3     1  UNL1        0.0253
     26 S         141.0252  142.2887  161.1333 S.O2    1  UNL1       -0.0116
     27 O         141.4827  141.3249  160.0789 O.2     1  UNL1       -0.1730
     28 O         140.5677  143.2526  162.1877 O.2     1  UNL1       -0.1730
     29 C         140.1214  141.2361  161.7035 C.3     1  UNL1        0.1508
     30 C         139.6350  141.3509  163.1177 C.3     1  UNL1        0.0271
@<TRIPOS>BOND
     1    14    15    1
     2    15    13    1
     3    13    12    1
     4    12     2    1
     5     2     3   ar
     6     3     4   ar
     7     4     1    1
     8     1    16    1
     9    16    17    1
    10    17    18    1
    11    18    19    1
    12    19    22    1
    13    22    23    1
    14    23    24    1
    15    24    25    1
    16    24    26    1
    17    26    27    2
    18    26    28    2
    19    26    29    1
    20    29    30    1
    21    19    20    1
    22    20    21    1
    23     4     5   ar
    24     5     6   ar
    25     6     7   ar
    26     7     8   ar
    27     8     9   ar
    28     9    10   ar
    29    10    11   ar
    30    11     2   ar
    31    21    16    1
    32    10     5   ar
@<TRIPOS>MOLECULE
*****
 30 32 0 0 0
SMALL
GASTEIGER

@<TRIPOS>ATOM
      1 O         140.8793  139.0128  166.5723 O.3     1  UNL1       -0.4776
      2 C         143.3599  142.0696  166.0693 C.ar    1  UNL1       -0.0191
      3 C         142.5178  140.8641  165.7734 C.ar    1  UNL1        0.0342
      4 C         141.7215  140.2183  166.8683 C.ar    1  UNL1        0.1555
      5 C         141.7674  140.7780  168.2593 C.ar    1  UNL1        0.1151
      6 N         140.9712  140.1322  169.3542 N.ar    1  UNL1       -0.2408
      7 C         141.0171  140.6918  170.7451 C.ar    1  UNL1        0.0989
      8 C         141.8593  141.8973  171.0410 C.ar    1  UNL1        0.0207
      9 C         142.6555  142.5431  169.9461 C.ar    1  UNL1        0.0032
     10 C         142.6096  141.9834  168.5552 C.ar    1  UNL1        0.0204
     11 C         143.4059  142.6292  167.4602 C.ar    1  UNL1       -0.0026
     12 C         144.1562  142.7154  164.9743 C.3     1  UNL1        0.0265
     13 C         144.3535  144.2023  164.9673 C.3     1  UNL1        0.0047
     14 C         142.1426  145.0234  163.8774 C.3     1  UNL1        0.0000
     15 C         143.6404  145.0487  163.9549 C.3     1  UNL1        0.0003
     16 C         140.3737  138.7746  165.1804 C.3     1  UNL1        0.1688
     17 C         140.9313  137.6476  164.3624 C.3     1  UNL1        0.0609
     18 C         140.4256  137.4094  162.9705 C.3     1  UNL1        0.0758
     19 N         139.3623  138.2981  162.3965 N.3     1  UNL1       -0.2724
     20 C         138.8047  139.4251  163.2143 C.3     1  UNL1        0.0758
     21 C         139.3103  139.6633  164.6063 C.3     1  UNL1        0.0609
     22 C         138.8567  138.0599  161.0045 C.3     1  UNL1        0.0738
     23 C         139.5122  138.7433  159.8412 C.3     1  UNL1        0.0409
     24 C         140.6609  139.6799  160.0716 C.3     1  UNL1        0.1306
     25 C         140.4106  141.1514  160.2197 C.3     1  UNL1        0.0253
     26 S         142.0599  139.1450  160.1540 S.O2    1  UNL1       -0.0116
     27 O         142.2976  139.9576  161.3922 O.2     1  UNL1       -0.1730
     28 O         141.8221  138.3325  158.9158 O.2     1  UNL1       -0.1730
     29 C         143.4588  138.6102  160.2363 C.3     1  UNL1        0.1508
     30 C         143.9578  138.0092  161.5169 C.3     1  UNL1        0.0271
@<TRIPOS>BOND
     1    14    15    1
     2    15    13    1
     3    13    12    1
     4    12     2    1
     5     2     3   ar
     6     3     4   ar
     7     4     1    1
     8     1    16    1
     9    16    17    1
    10    17    18    1
    11    18    19    1
    12    19    22    1
    13    22    23    1
    14    23    24    1
    15    24    25    1
    16    24    26    1
    17    26    27    2
    18    26    28    2
    19    26    29    1
    20    29    30    1
    21    19    20    1
    22    20    21    1
    23     4     5   ar
    24     5     6   ar
    25     6     7   ar
    26     7     8   ar
    27     8     9   ar
    28     9    10   ar
    29    10    11   ar
    30    11     2   ar
    31    21    16    1
    32    10     5   ar
