@<TRIPOS>MOLECULE
*****
 29 31 0 0 0
SMALL
GASTEIGER

@<TRIPOS>ATOM
      1 C         140.2162  141.9848  165.7368 C.ar    1  UNL1       -0.0000
      2 C         139.7222  143.3615  165.4044 C.ar    1  UNL1       -0.0003
      3 C         139.8740  143.8968  164.0113 C.ar    1  UNL1       -0.0042
      4 C         140.5198  143.0553  162.9507 C.ar    1  UNL1       -0.0197
      5 C         141.0138  141.6785  163.2832 C.ar    1  UNL1       -0.0042
      6 C         140.8619  141.1433  164.6762 C.ar    1  UNL1       -0.0003
      7 C         140.6134  141.5874  169.6654 C.ar    1  UNL1        0.0347
      8 C         139.7608  140.3790  169.9158 C.ar    1  UNL1        0.0028
      9 C         139.0599  139.7058  168.7731 C.ar    1  UNL1        0.0001
     10 C         139.2117  140.2411  167.3801 C.ar    1  UNL1        0.0000
     11 C         140.0643  141.4495  167.1298 C.ar    1  UNL1        0.0001
     12 C         140.7652  142.1227  168.2724 C.ar    1  UNL1        0.0028
     13 C         142.6239  142.9554  170.5800 C.3     1  UNL1        0.0773
     14 C         141.3143  142.2606  170.8081 C.2     1  UNL1        0.1735
     15 O         140.7055  142.2390  172.1788 O.2     1  UNL1       -0.2913
     16 C         140.6717  143.5905  161.5578 C.3     1  UNL1        0.0557
     17 C         139.7758  143.2862  160.3938 C.3     1  UNL1        0.0780
     18 N         140.2965  144.0317  159.2008 N.3     1  UNL1       -0.2700
     19 C         139.7036  144.0150  157.8230 C.3     1  UNL1        0.0897
     20 C         141.5142  144.7967  159.6275 C.3     1  UNL1        0.0901
     21 C         141.7460  144.5240  161.0842 C.3     1  UNL1        0.0964
     22 N         142.8572  145.0862  161.9204 N.3     1  UNL1       -0.1830
     23 H         142.4431  145.8019  162.5176 H       1  UNL1        0.1484
     24 S         143.6532  144.1831  162.8152 S.O2    1  UNL1        0.0390
     25 O         143.1861  144.9573  164.0121 O.2     1  UNL1       -0.1576
     26 O         144.1203  143.4090  161.6184 O.2     1  UNL1       -0.1576
     27 C         144.4492  143.2801  163.7101 C.3     1  UNL1        0.1457
     28 C         145.2765  142.1773  163.1186 C.3     1  UNL1        0.0270
     29 C         144.4181  143.4797  165.1964 C.3     1  UNL1        0.0270
@<TRIPOS>BOND
     1    13    14    1
     2    14    15    2
     3    14     7    1
     4     7     8   ar
     5     8     9   ar
     6     9    10   ar
     7    10    11   ar
     8    11     1    1
     9     1     2   ar
    10     2     3   ar
    11     3     4   ar
    12    16     4    1
    13    16    17    1
    14    17    18    1
    15    18    19    1
    16    18    20    1
    17    20    21    1
    18    21    22    1
    19    22    24    1
    20    24    25    2
    21    24    26    2
    22    24    27    1
    23    27    28    1
    24    27    29    1
    25     4     5   ar
    26     5     6   ar
    27    11    12   ar
    28    12     7   ar
    29     6     1   ar
    30    21    16    1
    31    22    23    1
@<TRIPOS>MOLECULE
*****
 29 31 0 0 0
SMALL
GASTEIGER

@<TRIPOS>ATOM
      1 C         142.7086  140.2030  166.0129 C.ar    1  UNL1       -0.0000
      2 C         143.7248  139.2497  165.4572 C.ar    1  UNL1       -0.0003
      3 C         143.8682  139.0878  163.9729 C.ar    1  UNL1       -0.0042
      4 C         142.9955  139.8790  163.0443 C.ar    1  UNL1       -0.0197
      5 C         141.9794  140.8323  163.6000 C.ar    1  UNL1       -0.0042
      6 C         141.8359  140.9942  165.0843 C.ar    1  UNL1       -0.0003
      7 C         142.1667  141.8844  169.5667 C.ar    1  UNL1        0.0347
      8 C         142.2783  140.6890  170.4658 C.ar    1  UNL1        0.0028
      9 C         142.5333  139.3316  169.8807 C.ar    1  UNL1        0.0001
     10 C         142.6768  139.1696  168.3965 C.ar    1  UNL1        0.0000
     11 C         142.5652  140.3649  167.4973 C.ar    1  UNL1        0.0001
     12 C         142.3101  141.7224  168.0824 C.ar    1  UNL1        0.0028
     13 C         140.5793  143.9034  169.9589 C.3     1  UNL1        0.0773
     14 C         141.9116  143.2418  170.1518 C.2     1  UNL1        0.1735
     15 O         142.9888  143.9377  170.9298 O.2     1  UNL1       -0.2913
     16 C         143.1389  139.7171  161.5600 C.3     1  UNL1        0.0557
     17 C         143.8757  140.6439  160.6390 C.3     1  UNL1        0.0780
     18 N         143.7629  140.0995  159.2459 N.3     1  UNL1       -0.2700
     19 C         144.3530  140.7110  158.0098 C.3     1  UNL1        0.0897
     20 C         142.9563  138.8362  159.3058 C.3     1  UNL1        0.0901
     21 C         142.5707  138.5998  160.7360 C.3     1  UNL1        0.0964
     22 N         141.7594  137.4484  161.2517 N.3     1  UNL1       -0.1830
     23 H         142.3724  136.9051  161.8595 H       1  UNL1        0.1484
     24 S         140.4998  137.7051  162.0248 S.O2    1  UNL1        0.0390
     25 O         139.9406  138.4678  160.8605 O.2     1  UNL1       -0.1576
     26 O         141.0590  136.9424  163.1890 O.2     1  UNL1       -0.1576
     27 C         139.2403  137.9617  162.7978 C.3     1  UNL1        0.1457
     28 C         138.0005  138.4122  162.0836 C.3     1  UNL1        0.0270
     29 C         139.2204  137.7679  164.2851 C.3     1  UNL1        0.0270
@<TRIPOS>BOND
     1    13    14    1
     2    14    15    2
     3    14     7    1
     4     7     8   ar
     5     8     9   ar
     6     9    10   ar
     7    10    11   ar
     8    11     1    1
     9     1     2   ar
    10     2     3   ar
    11     3     4   ar
    12    16     4    1
    13    16    17    1
    14    17    18    1
    15    18    19    1
    16    18    20    1
    17    20    21    1
    18    21    22    1
    19    22    24    1
    20    24    25    2
    21    24    26    2
    22    24    27    1
    23    27    28    1
    24    27    29    1
    25     4     5   ar
    26     5     6   ar
    27    11    12   ar
    28    12     7   ar
    29     6     1   ar
    30    21    16    1
    31    22    23    1
@<TRIPOS>MOLECULE
*****
 29 31 0 0 0
SMALL
GASTEIGER

@<TRIPOS>ATOM
      1 C         139.9454  140.9109  166.0249 C.ar    1  UNL1       -0.0000
      2 C         140.9718  141.4175  165.0554 C.ar    1  UNL1       -0.0003
      3 C         140.7081  141.3497  163.5803 C.ar    1  UNL1       -0.0042
      4 C         139.4180  140.7753  163.0747 C.ar    1  UNL1       -0.0197
      5 C         138.3916  140.2687  164.0442 C.ar    1  UNL1       -0.0042
      6 C         138.6553  140.3365  165.5192 C.ar    1  UNL1       -0.0003
      7 C         141.5704  141.9231  169.5012 C.ar    1  UNL1        0.0347
      8 C         140.7366  141.1143  170.4501 C.ar    1  UNL1        0.0028
      9 C         139.6390  140.2377  169.9239 C.ar    1  UNL1        0.0001
     10 C         139.3752  140.1699  168.4489 C.ar    1  UNL1        0.0000
     11 C         140.2091  140.9787  167.5000 C.ar    1  UNL1        0.0001
     12 C         141.3067  141.8553  168.0262 C.ar    1  UNL1        0.0028
     13 C         144.0994  142.3727  169.8908 C.3     1  UNL1        0.0773
     14 C         142.6680  142.7997  170.0274 C.2     1  UNL1        0.1735
     15 O         142.3342  144.1033  170.6900 O.2     1  UNL1       -0.2913
     16 C         139.1543  140.7075  161.5996 C.3     1  UNL1        0.0557
     17 C         139.6527  139.6475  160.6626 C.3     1  UNL1        0.0780
     18 N         139.1523  139.9727  159.2865 N.3     1  UNL1       -0.2700
     19 C         139.4137  139.1767  158.0423 C.3     1  UNL1        0.0897
     20 C         138.3446  141.2337  159.3730 C.3     1  UNL1        0.0901
     21 C         138.3458  141.6878  160.8026 C.3     1  UNL1        0.0964
     22 N         137.6591  142.9081  161.3406 N.3     1  UNL1       -0.1830
     23 H         136.8873  142.5797  161.9210 H       1  UNL1        0.1484
     24 S         138.4275  143.9001  162.1626 S.O2    1  UNL1        0.0390
     25 O         137.5473  143.6053  163.3409 O.2     1  UNL1       -0.1576
     26 O         139.3075  144.1948  160.9842 O.2     1  UNL1       -0.1576
     27 C         139.1957  144.8921  162.9845 C.3     1  UNL1        0.1457
     28 C         140.0343  145.9364  162.3091 C.3     1  UNL1        0.0270
     29 C         139.1254  144.8398  164.4819 C.3     1  UNL1        0.0270
@<TRIPOS>BOND
     1    13    14    1
     2    14    15    2
     3    14     7    1
     4     7     8   ar
     5     8     9   ar
     6     9    10   ar
     7    10    11   ar
     8    11     1    1
     9     1     2   ar
    10     2     3   ar
    11     3     4   ar
    12    16     4    1
    13    16    17    1
    14    17    18    1
    15    18    19    1
    16    18    20    1
    17    20    21    1
    18    21    22    1
    19    22    24    1
    20    24    25    2
    21    24    26    2
    22    24    27    1
    23    27    28    1
    24    27    29    1
    25     4     5   ar
    26     5     6   ar
    27    11    12   ar
    28    12     7   ar
    29     6     1   ar
    30    21    16    1
    31    22    23    1
@<TRIPOS>MOLECULE
*****
 29 31 0 0 0
SMALL
GASTEIGER

@<TRIPOS>ATOM
      1 C         140.8362  140.1295  166.0407 C.ar    1  UNL1       -0.0000
      2 C         141.4560  140.9820  164.9735 C.ar    1  UNL1       -0.0003
      3 C         141.0038  140.8479  163.5496 C.ar    1  UNL1       -0.0042
      4 C         139.9318  139.8612  163.1929 C.ar    1  UNL1       -0.0197
      5 C         139.3119  139.0087  164.2602 C.ar    1  UNL1       -0.0042
      6 C         139.7641  139.1429  165.6841 C.ar    1  UNL1       -0.0003
      7 C         141.1823  141.4891  169.7531 C.ar    1  UNL1        0.0347
      8 C         142.1927  140.5320  170.3125 C.ar    1  UNL1        0.0028
      9 C         142.7509  139.4407  169.4480 C.ar    1  UNL1        0.0001
     10 C         142.2987  139.3065  168.0241 C.ar    1  UNL1        0.0000
     11 C         141.2884  140.2636  167.4647 C.ar    1  UNL1        0.0001
     12 C         140.7301  141.3550  168.3292 C.ar    1  UNL1        0.0028
     13 C         140.3502  143.9344  170.0330 C.3     1  UNL1        0.0773
     14 C         140.6240  142.5805  170.6176 C.2     1  UNL1        0.1735
     15 O         140.3396  142.3178  172.0668 O.2     1  UNL1       -0.2913
     16 C         139.4796  139.7271  161.7690 C.3     1  UNL1        0.0557
     17 C         140.1656  138.9330  160.6971 C.3     1  UNL1        0.0780
     18 N         139.3719  139.0786  159.4327 N.3     1  UNL1       -0.2700
     19 C         139.6976  138.4504  158.1100 C.3     1  UNL1        0.0897
     20 C         138.1954  139.9626  159.7231 C.3     1  UNL1        0.0901
     21 C         138.2619  140.3634  161.1670 C.3     1  UNL1        0.0964
     22 N         137.2827  141.2456  161.8831 N.3     1  UNL1       -0.1830
     23 H         136.8531  140.6770  162.6129 H       1  UNL1        0.1484
     24 S         137.7528  142.5098  162.5397 S.O2    1  UNL1        0.0390
     25 O         138.1153  143.0721  161.1972 O.2     1  UNL1       -0.1576
     26 O         137.3903  141.9473  163.8821 O.2     1  UNL1       -0.1576
     27 C         138.2229  143.7738  163.1961 C.3     1  UNL1        0.1457
     28 C         137.8648  144.0547  164.6255 C.3     1  UNL1        0.0270
     29 C         139.0510  144.7572  162.4233 C.3     1  UNL1        0.0270
@<TRIPOS>BOND
     1    13    14    1
     2    14    15    2
     3    14     7    1
     4     7     8   ar
     5     8     9   ar
     6     9    10   ar
     7    10    11   ar
     8    11     1    1
     9     1     2   ar
    10     2     3   ar
    11     3     4   ar
    12    16     4    1
    13    16    17    1
    14    17    18    1
    15    18    19    1
    16    18    20    1
    17    20    21    1
    18    21    22    1
    19    22    24    1
    20    24    25    2
    21    24    26    2
    22    24    27    1
    23    27    28    1
    24    27    29    1
    25     4     5   ar
    26     5     6   ar
    27    11    12   ar
    28    12     7   ar
    29     6     1   ar
    30    21    16    1
    31    22    23    1
@<TRIPOS>MOLECULE
*****
 29 31 0 0 0
SMALL
GASTEIGER

@<TRIPOS>ATOM
      1 C         142.4666  140.3533  166.0859 C.ar    1  UNL1       -0.0000
      2 C         143.5617  139.5578  165.4395 C.ar    1  UNL1       -0.0003
      3 C         143.7644  139.6289  163.9549 C.ar    1  UNL1       -0.0042
      4 C         142.8720  140.4956  163.1168 C.ar    1  UNL1       -0.0197
      5 C         141.7768  141.2912  163.7633 C.ar    1  UNL1       -0.0042
      6 C         141.5742  141.2200  165.2478 C.ar    1  UNL1       -0.0003
      7 C         141.4019  141.3483  169.7773 C.ar    1  UNL1        0.0347
      8 C         141.8585  140.1399  170.5395 C.ar    1  UNL1        0.0028
      9 C         142.5178  139.0025  169.8172 C.ar    1  UNL1        0.0001
     10 C         142.7206  139.0736  168.3327 C.ar    1  UNL1        0.0000
     11 C         142.2639  140.2821  167.5705 C.ar    1  UNL1        0.0001
     12 C         141.6046  141.4195  168.2928 C.ar    1  UNL1        0.0028
     13 C         140.4518  143.7664  169.7750 C.3     1  UNL1        0.0773
     14 C         140.7426  142.4857  170.4996 C.2     1  UNL1        0.1735
     15 O         140.3740  142.3423  171.9465 O.2     1  UNL1       -0.2913
     16 C         143.0746  140.5668  161.6323 C.3     1  UNL1        0.0557
     17 C         142.3297  139.7714  160.6016 C.3     1  UNL1        0.0780
     18 N         142.8524  140.1589  159.2501 N.3     1  UNL1       -0.2700
     19 C         142.3886  139.6082  157.9342 C.3     1  UNL1        0.0897
     20 C         143.9205  141.1939  159.4456 C.3     1  UNL1        0.0901
     21 C         144.0578  141.4460  160.9179 C.3     1  UNL1        0.0964
     22 N         145.0109  142.4082  161.5624 N.3     1  UNL1       -0.1830
     23 H         145.2924  143.0718  160.8408 H       1  UNL1        0.1484
     24 S         144.5733  143.2171  162.7475 S.O2    1  UNL1        0.0390
     25 O         145.5254  142.4539  163.6199 O.2     1  UNL1       -0.1576
     26 O         143.6213  143.9802  161.8750 O.2     1  UNL1       -0.1576
     27 C         144.1358  144.0259  163.9324 C.3     1  UNL1        0.1457
     28 C         144.5290  143.6018  165.3165 C.3     1  UNL1        0.0270
     29 C         143.3050  145.2589  163.7335 C.3     1  UNL1        0.0270
@<TRIPOS>BOND
     1    13    14    1
     2    14    15    2
     3    14     7    1
     4     7     8   ar
     5     8     9   ar
     6     9    10   ar
     7    10    11   ar
     8    11     1    1
     9     1     2   ar
    10     2     3   ar
    11     3     4   ar
    12    16     4    1
    13    16    17    1
    14    17    18    1
    15    18    19    1
    16    18    20    1
    17    20    21    1
    18    21    22    1
    19    22    24    1
    20    24    25    2
    21    24    26    2
    22    24    27    1
    23    27    28    1
    24    27    29    1
    25     4     5   ar
    26     5     6   ar
    27    11    12   ar
    28    12     7   ar
    29     6     1   ar
    30    21    16    1
    31    22    23    1
@<TRIPOS>MOLECULE
*****
 29 31 0 0 0
SMALL
GASTEIGER

@<TRIPOS>ATOM
      1 C         140.9963  141.1955  165.5988 C.ar    1  UNL1       -0.0000
      2 C         140.1604  141.0418  164.3629 C.ar    1  UNL1       -0.0003
      3 C         140.7795  141.2331  163.0100 C.ar    1  UNL1       -0.0042
      4 C         142.2347  141.5780  162.8932 C.ar    1  UNL1       -0.0197
      5 C         143.0706  141.7317  164.1292 C.ar    1  UNL1       -0.0042
      6 C         142.4514  141.5404  165.4820 C.ar    1  UNL1       -0.0003
      7 C         140.0376  141.7955  169.4029 C.ar    1  UNL1        0.0347
      8 C         139.1390  140.6218  169.6573 C.ar    1  UNL1        0.0028
      9 C         138.8594  139.6393  168.5588 C.ar    1  UNL1        0.0001
     10 C         139.4785  139.8305  167.2060 C.ar    1  UNL1        0.0000
     11 C         140.3772  141.0042  166.9517 C.ar    1  UNL1        0.0001
     12 C         140.6567  141.9868  168.0501 C.ar    1  UNL1        0.0028
     13 C         140.4830  144.2340  170.1810 C.3     1  UNL1        0.0773
     14 C         140.3171  142.7781  170.5013 C.2     1  UNL1        0.1735
     15 O         140.4309  142.3046  171.9200 O.2     1  UNL1       -0.2913
     16 C         142.8538  141.7693  161.5404 C.3     1  UNL1        0.0557
     17 C         143.1734  140.6839  160.5556 C.3     1  UNL1        0.0780
     18 N         143.7792  141.3233  159.3415 N.3     1  UNL1       -0.2700
     19 C         144.2480  140.6078  158.1093 C.3     1  UNL1        0.0897
     20 C         143.8340  142.8039  159.5760 C.3     1  UNL1        0.0901
     21 C         143.2621  143.0795  160.9350 C.3     1  UNL1        0.0964
     22 N         143.1229  144.4285  161.5759 N.3     1  UNL1       -0.1830
     23 H         143.3779  145.1181  160.8689 H       1  UNL1        0.1484
     24 S         141.8017  144.8571  162.1423 S.O2    1  UNL1        0.0390
     25 O         142.4530  145.1109  163.4694 O.2     1  UNL1       -0.1576
     26 O         141.1505  144.6033  160.8151 O.2     1  UNL1       -0.1576
     27 C         140.4806  145.2858  162.7086 C.3     1  UNL1        0.1457
     28 C         140.0389  144.7779  164.0492 C.3     1  UNL1        0.0270
     29 C         139.6010  146.2223  161.9345 C.3     1  UNL1        0.0270
@<TRIPOS>BOND
     1    13    14    1
     2    14    15    2
     3    14     7    1
     4     7     8   ar
     5     8     9   ar
     6     9    10   ar
     7    10    11   ar
     8    11     1    1
     9     1     2   ar
    10     2     3   ar
    11     3     4   ar
    12    16     4    1
    13    16    17    1
    14    17    18    1
    15    18    19    1
    16    18    20    1
    17    20    21    1
    18    21    22    1
    19    22    24    1
    20    24    25    2
    21    24    26    2
    22    24    27    1
    23    27    28    1
    24    27    29    1
    25     4     5   ar
    26     5     6   ar
    27    11    12   ar
    28    12     7   ar
    29     6     1   ar
    30    21    16    1
    31    22    23    1
@<TRIPOS>MOLECULE
*****
 29 31 0 0 0
SMALL
GASTEIGER

@<TRIPOS>ATOM
      1 C         140.8449  141.8925  165.3352 C.ar    1  UNL1       -0.0000
      2 C         141.8691  142.9739  165.1581 C.ar    1  UNL1       -0.0003
      3 C         142.2495  143.4284  163.7801 C.ar    1  UNL1       -0.0042
      4 C         141.6055  142.8015  162.5792 C.ar    1  UNL1       -0.0197
      5 C         140.5811  141.7201  162.7563 C.ar    1  UNL1       -0.0042
      6 C         140.2009  141.2656  164.1342 C.ar    1  UNL1       -0.0003
      7 C         140.6785  141.6556  169.2932 C.ar    1  UNL1        0.0347
      8 C         139.7040  140.5289  169.4690 C.ar    1  UNL1        0.0028
      9 C         139.1097  139.8568  168.2669 C.ar    1  UNL1        0.0001
     10 C         139.4900  140.3113  166.8890 C.ar    1  UNL1        0.0000
     11 C         140.4645  141.4379  166.7132 C.ar    1  UNL1        0.0001
     12 C         141.0588  142.1101  167.9153 C.ar    1  UNL1        0.0028
     13 C         142.5489  143.1053  170.3656 C.3     1  UNL1        0.0773
     14 C         141.2728  142.3277  170.4954 C.2     1  UNL1        0.1735
     15 O         140.5910  142.2222  171.8272 O.2     1  UNL1       -0.2913
     16 C         141.9857  143.2560  161.2013 C.3     1  UNL1        0.0557
     17 C         141.5258  144.5163  160.5302 C.3     1  UNL1        0.0780
     18 N         142.1485  144.5692  159.1666 N.3     1  UNL1       -0.2700
     19 C         141.9596  145.6584  158.1528 C.3     1  UNL1        0.0897
     20 C         142.9933  143.3416  158.9949 C.3     1  UNL1        0.0901
     21 C         142.8927  142.5301  160.2524 C.3     1  UNL1        0.0964
     22 N         143.5786  141.2222  160.5148 N.3     1  UNL1       -0.1830
     23 H         144.3018  141.1209  159.8027 H       1  UNL1        0.1484
     24 S         144.2373  140.9732  161.8393 S.O2    1  UNL1        0.0390
     25 O         145.0956  142.1872  161.6407 O.2     1  UNL1       -0.1576
     26 O         143.3790  139.7592  162.0378 O.2     1  UNL1       -0.1576
     27 C         144.8960  140.7242  163.1637 C.3     1  UNL1        0.1457
     28 C         144.6120  139.4581  163.9164 C.3     1  UNL1        0.0270
     29 C         145.8387  141.7412  163.7354 C.3     1  UNL1        0.0270
@<TRIPOS>BOND
     1    13    14    1
     2    14    15    2
     3    14     7    1
     4     7     8   ar
     5     8     9   ar
     6     9    10   ar
     7    10    11   ar
     8    11     1    1
     9     1     2   ar
    10     2     3   ar
    11     3     4   ar
    12    16     4    1
    13    16    17    1
    14    17    18    1
    15    18    19    1
    16    18    20    1
    17    20    21    1
    18    21    22    1
    19    22    24    1
    20    24    25    2
    21    24    26    2
    22    24    27    1
    23    27    28    1
    24    27    29    1
    25     4     5   ar
    26     5     6   ar
    27    11    12   ar
    28    12     7   ar
    29     6     1   ar
    30    21    16    1
    31    22    23    1
@<TRIPOS>MOLECULE
*****
 29 31 0 0 0
SMALL
GASTEIGER

@<TRIPOS>ATOM
      1 C         140.6956  140.7278  165.5960 C.ar    1  UNL1       -0.0000
      2 C         141.5802  141.3499  164.5566 C.ar    1  UNL1       -0.0003
      3 C         141.1210  141.4292  163.1308 C.ar    1  UNL1       -0.0042
      4 C         139.7772  140.8862  162.7444 C.ar    1  UNL1       -0.0197
      5 C         138.8925  140.2641  163.7838 C.ar    1  UNL1       -0.0042
      6 C         139.3517  140.1849  165.2096 C.ar    1  UNL1       -0.0003
      7 C         141.1522  141.5930  169.4422 C.ar    1  UNL1        0.0347
      8 C         142.0730  140.4902  169.8734 C.ar    1  UNL1        0.0028
      9 C         142.5347  139.4667  168.8788 C.ar    1  UNL1        0.0001
     10 C         142.0755  139.5458  167.4531 C.ar    1  UNL1        0.0000
     11 C         141.1547  140.6486  167.0218 C.ar    1  UNL1        0.0001
     12 C         140.6931  141.6722  168.0164 C.ar    1  UNL1        0.0028
     13 C         140.4248  144.0251  169.9949 C.3     1  UNL1        0.0773
     14 C         140.6905  142.6166  170.4367 C.2     1  UNL1        0.1735
     15 O         140.4945  142.2316  171.8731 O.2     1  UNL1       -0.2913
     16 C         139.3180  140.9654  161.3186 C.3     1  UNL1        0.0557
     17 C         139.7313  140.0471  160.2069 C.3     1  UNL1        0.0780
     18 N         139.0336  140.4910  158.9554 N.3     1  UNL1       -0.2700
     19 C         139.1584  139.8540  157.6032 C.3     1  UNL1        0.0897
     20 C         138.1891  141.6837  159.2937 C.3     1  UNL1        0.0901
     21 C         138.3649  141.9769  160.7543 C.3     1  UNL1        0.0964
     22 N         137.7037  143.0867  161.5165 N.3     1  UNL1       -0.1830
     23 H         136.9429  142.6653  162.0495 H       1  UNL1        0.1484
     24 S         138.5016  143.9138  162.4805 S.O2    1  UNL1        0.0390
     25 O         139.3563  144.4062  161.3505 O.2     1  UNL1       -0.1576
     26 O         137.6468  143.4213  163.6105 O.2     1  UNL1       -0.1576
     27 C         139.2994  144.7408  163.4445 C.3     1  UNL1        0.1457
     28 C         140.5092  145.4891  162.9683 C.3     1  UNL1        0.0270
     29 C         138.8877  144.8197  164.8847 C.3     1  UNL1        0.0270
@<TRIPOS>BOND
     1    13    14    1
     2    14    15    2
     3    14     7    1
     4     7     8   ar
     5     8     9   ar
     6     9    10   ar
     7    10    11   ar
     8    11     1    1
     9     1     2   ar
    10     2     3   ar
    11     3     4   ar
    12    16     4    1
    13    16    17    1
    14    17    18    1
    15    18    19    1
    16    18    20    1
    17    20    21    1
    18    21    22    1
    19    22    24    1
    20    24    25    2
    21    24    26    2
    22    24    27    1
    23    27    28    1
    24    27    29    1
    25     4     5   ar
    26     5     6   ar
    27    11    12   ar
    28    12     7   ar
    29     6     1   ar
    30    21    16    1
    31    22    23    1
@<TRIPOS>MOLECULE
*****
 29 31 0 0 0
SMALL
GASTEIGER

@<TRIPOS>ATOM
      1 C         142.1258  141.6334  165.5127 C.ar    1  UNL1       -0.0000
      2 C         143.2153  142.5563  165.0531 C.ar    1  UNL1       -0.0003
      3 C         143.2857  142.9759  163.6146 C.ar    1  UNL1       -0.0042
      4 C         142.2667  142.4725  162.6358 C.ar    1  UNL1       -0.0197
      5 C         141.1772  141.5495  163.0954 C.ar    1  UNL1       -0.0042
      6 C         141.1068  141.1300  164.5338 C.ar    1  UNL1       -0.0003
      7 C         141.3814  141.7132  169.4100 C.ar    1  UNL1        0.0347
      8 C         141.9145  140.3749  169.8279 C.ar    1  UNL1        0.0028
      9 C         142.5181  139.4560  168.8074 C.ar    1  UNL1        0.0001
     10 C         142.5885  139.8755  167.3690 C.ar    1  UNL1        0.0000
     11 C         142.0554  141.2138  166.9511 C.ar    1  UNL1        0.0001
     12 C         141.4518  142.1327  167.9716 C.ar    1  UNL1        0.0028
     13 C         140.3766  144.0242  170.0422 C.3     1  UNL1        0.0773
     14 C         140.7778  142.6320  170.4305 C.2     1  UNL1        0.1735
     15 O         140.5753  142.1586  171.8394 O.2     1  UNL1       -0.2913
     16 C         142.3371  142.8920  161.1974 C.3     1  UNL1        0.0557
     17 C         142.9270  142.0925  160.0737 C.3     1  UNL1        0.0780
     18 N         142.7845  142.8910  158.8119 N.3     1  UNL1       -0.2700
     19 C         143.2400  142.4704  157.4461 C.3     1  UNL1        0.0897
     20 C         142.1063  144.1841  159.1559 C.3     1  UNL1        0.0901
     21 C         141.8299  144.1846  160.6302 C.3     1  UNL1        0.0964
     22 N         141.1632  145.2847  161.4018 N.3     1  UNL1       -0.1830
     23 H         140.7220  145.8989  160.7173 H       1  UNL1        0.1484
     24 S         140.1176  144.9557  162.4257 S.O2    1  UNL1        0.0390
     25 O         141.0069  145.4946  163.5068 O.2     1  UNL1       -0.1576
     26 O         139.2285  144.4168  161.3446 O.2     1  UNL1       -0.1576
     27 C         139.0721  144.6267  163.4497 C.3     1  UNL1        0.1457
     28 C         139.4009  144.7101  164.9109 C.3     1  UNL1        0.0270
     29 C         137.6978  144.2143  163.0126 C.3     1  UNL1        0.0270
@<TRIPOS>BOND
     1    13    14    1
     2    14    15    2
     3    14     7    1
     4     7     8   ar
     5     8     9   ar
     6     9    10   ar
     7    10    11   ar
     8    11     1    1
     9     1     2   ar
    10     2     3   ar
    11     3     4   ar
    12    16     4    1
    13    16    17    1
    14    17    18    1
    15    18    19    1
    16    18    20    1
    17    20    21    1
    18    21    22    1
    19    22    24    1
    20    24    25    2
    21    24    26    2
    22    24    27    1
    23    27    28    1
    24    27    29    1
    25     4     5   ar
    26     5     6   ar
    27    11    12   ar
    28    12     7   ar
    29     6     1   ar
    30    21    16    1
    31    22    23    1
