@<TRIPOS>MOLECULE
*****
 27 30 0 0 0
SMALL
GASTEIGER

@<TRIPOS>ATOM
      1 C         141.5059  142.9518  161.3905 C.3     1  UNL1        0.1123
      2 N         141.6548  142.3332  162.7489 N.am    1  UNL1       -0.2606
      3 C         141.9766  140.8959  163.0327 C.3     1  UNL1        0.1169
      4 C         142.0288  140.7177  164.5212 C.3     1  UNL1        0.1212
      5 N         141.7393  142.0450  165.1573 N.am    1  UNL1       -0.2413
      6 C         141.5082  143.0435  164.0620 C.2     1  UNL1        0.3111
      7 O         141.1868  144.4969  164.2472 O.2     1  UNL1       -0.2520
      8 C         141.6897  142.3247  166.6302 C.ar    1  UNL1        0.0562
      9 C         140.3968  142.7307  167.2733 C.ar    1  UNL1        0.0150
     10 C         140.3472  143.0104  168.7462 C.ar    1  UNL1        0.0021
     11 C         141.5905  142.8842  169.5758 C.ar    1  UNL1        0.0115
     12 C         142.8834  142.4782  168.9327 C.ar    1  UNL1        0.0589
     13 CL        144.1266  142.3519  169.7624 Cl      1  UNL1       -0.0822
     14 C         142.9330  142.1984  167.4599 C.ar    1  UNL1        0.0263
     15 C         140.3107  143.8039  161.0814 C.3     1  UNL1        0.0942
     16 C         138.7218  142.7739  159.3026 C.3     1  UNL1        0.0899
     17 N         139.0034  143.1610  160.7241 N.3     1  UNL1       -0.2658
     18 C         137.9777  142.9053  161.7883 C.3     1  UNL1        0.1057
     19 C         138.1348  141.7372  162.7161 C.ar    1  UNL1        0.0234
     20 C         137.9937  141.7718  164.2090 C.ar    1  UNL1        0.0040
     21 C         138.2322  140.3853  164.7295 C.ar    1  UNL1        0.0062
     22 C         138.2239  139.8194  166.1186 C.ar    1  UNL1        0.0005
     23 C         138.5042  138.3621  166.3364 C.ar    1  UNL1        0.0000
     24 C         138.7926  137.4706  165.1651 C.ar    1  UNL1        0.0005
     25 C         138.8009  138.0364  163.7760 C.ar    1  UNL1        0.0065
     26 C         138.5207  139.4938  163.5582 C.ar    1  UNL1        0.0292
     27 S         138.4605  140.3293  162.3139 S.2     1  UNL1       -0.0899
@<TRIPOS>BOND
     1    16    17    1
     2    17    15    1
     3    15     1    1
     4     1     2    1
     5     2     3    1
     6     3     4    1
     7     4     5    1
     8     5     8    1
     9     8     9   ar
    10     9    10   ar
    11    10    11   ar
    12    11    12   ar
    13    12    13    1
    14    12    14   ar
    15     5     6   am
    16     6     7    2
    17    17    18    1
    18    18    19    1
    19    19    20   ar
    20    20    21   ar
    21    21    22   ar
    22    22    23   ar
    23    23    24   ar
    24    24    25   ar
    25    25    26   ar
    26    26    27   ar
    27     6     2   am
    28    27    19   ar
    29    14     8   ar
    30    26    21   ar
@<TRIPOS>MOLECULE
*****
 27 30 0 0 0
SMALL
GASTEIGER

@<TRIPOS>ATOM
      1 C         143.7582  144.1195  163.2688 C.3     1  UNL1        0.1123
      2 N         142.5150  143.6287  163.9496 N.am    1  UNL1       -0.2606
      3 C         141.1150  143.7538  163.4258 C.3     1  UNL1        0.1169
      4 C         140.1883  143.1290  164.4263 C.3     1  UNL1        0.1212
      5 N         141.0155  142.6178  165.5683 N.am    1  UNL1       -0.2413
      6 C         142.4536  142.9266  165.2737 C.2     1  UNL1        0.3111
      7 O         143.6245  142.5921  166.1495 O.2     1  UNL1       -0.2520
      8 C         140.4960  141.9202  166.7904 C.ar    1  UNL1        0.0562
      9 C         139.9016  140.5479  166.6750 C.ar    1  UNL1        0.0150
     10 C         139.3822  139.8503  167.8971 C.ar    1  UNL1        0.0021
     11 C         139.4571  140.5251  169.2347 C.ar    1  UNL1        0.0115
     12 C         140.0515  141.8975  169.3501 C.ar    1  UNL1        0.0589
     13 CL        140.1264  142.5723  170.6876 Cl      1  UNL1       -0.0822
     14 C         140.5710  142.5950  168.1280 C.ar    1  UNL1        0.0263
     15 C         144.4527  143.2534  162.2601 C.3     1  UNL1        0.0942
     16 C         145.9683  141.7172  163.7069 C.3     1  UNL1        0.0899
     17 N         144.9213  141.8815  162.6454 N.3     1  UNL1       -0.2658
     18 C         144.3429  140.6740  161.9692 C.3     1  UNL1        0.1057
     19 C         143.1266  140.0060  162.5388 C.ar    1  UNL1        0.0234
     20 C         143.1217  138.8802  163.5301 C.ar    1  UNL1        0.0040
     21 C         141.6937  138.5249  163.8210 C.ar    1  UNL1        0.0062
     22 C         141.0792  137.4934  164.7200 C.ar    1  UNL1        0.0005
     23 C         139.5870  137.3680  164.8074 C.ar    1  UNL1        0.0000
     24 C         138.7094  138.2742  163.9960 C.ar    1  UNL1        0.0005
     25 C         139.3239  139.3058  163.0970 C.ar    1  UNL1        0.0065
     26 C         140.8160  139.4312  163.0095 C.ar    1  UNL1        0.0292
     27 S         141.7016  140.3465  162.2171 S.2     1  UNL1       -0.0899
@<TRIPOS>BOND
     1    16    17    1
     2    17    15    1
     3    15     1    1
     4     1     2    1
     5     2     3    1
     6     3     4    1
     7     4     5    1
     8     5     8    1
     9     8     9   ar
    10     9    10   ar
    11    10    11   ar
    12    11    12   ar
    13    12    13    1
    14    12    14   ar
    15     5     6   am
    16     6     7    2
    17    17    18    1
    18    18    19    1
    19    19    20   ar
    20    20    21   ar
    21    21    22   ar
    22    22    23   ar
    23    23    24   ar
    24    24    25   ar
    25    25    26   ar
    26    26    27   ar
    27     6     2   am
    28    27    19   ar
    29    14     8   ar
    30    26    21   ar
@<TRIPOS>MOLECULE
*****
 27 30 0 0 0
SMALL
GASTEIGER

@<TRIPOS>ATOM
      1 C         138.6066  138.9124  165.6548 C.3     1  UNL1        0.1123
      2 N         139.7188  139.9117  165.7756 N.am    1  UNL1       -0.2606
      3 C         140.6267  140.0818  166.9574 C.3     1  UNL1        0.1169
      4 C         141.5874  141.1915  166.6480 C.3     1  UNL1        0.1212
      5 N         141.2732  141.7071  165.2749 N.am    1  UNL1       -0.2413
      6 C         140.1183  140.9162  164.7357 C.2     1  UNL1        0.3111
      7 O         139.4757  141.0978  163.3925 O.2     1  UNL1       -0.2520
      8 C         141.9883  142.8187  164.5655 C.ar    1  UNL1        0.0562
      9 C         143.2140  143.4316  165.1754 C.ar    1  UNL1        0.0150
     10 C         143.9290  144.5430  164.4659 C.ar    1  UNL1        0.0021
     11 C         143.4183  145.0416  163.1466 C.ar    1  UNL1        0.0115
     12 C         142.1926  144.4287  162.5367 C.ar    1  UNL1        0.0589
     13 CL        141.6820  144.9272  161.2174 Cl      1  UNL1       -0.0822
     14 C         141.4776  143.3172  163.2461 C.ar    1  UNL1        0.0263
     15 C         138.8454  137.6047  164.9601 C.3     1  UNL1        0.0942
     16 C         138.5510  137.9757  162.4055 C.3     1  UNL1        0.0899
     17 N         139.4111  137.5857  163.5709 N.3     1  UNL1       -0.2658
     18 C         140.8368  137.1768  163.3472 C.3     1  UNL1        0.1057
     19 C         141.9072  138.2211  163.2307 C.ar    1  UNL1        0.0234
     20 C         142.0990  139.1623  162.0786 C.ar    1  UNL1        0.0040
     21 C         143.2841  140.0306  162.3817 C.ar    1  UNL1        0.0062
     22 C         143.9407  141.1373  161.6110 C.ar    1  UNL1        0.0005
     23 C         145.1380  141.8394  162.1799 C.ar    1  UNL1        0.0000
     24 C         145.6785  141.4349  163.5193 C.ar    1  UNL1        0.0005
     25 C         145.0218  140.3282  164.2900 C.ar    1  UNL1        0.0065
     26 C         143.8246  139.6260  163.7211 C.ar    1  UNL1        0.0292
     27 S         142.9736  138.5077  164.2458 S.2     1  UNL1       -0.0899
@<TRIPOS>BOND
     1    16    17    1
     2    17    15    1
     3    15     1    1
     4     1     2    1
     5     2     3    1
     6     3     4    1
     7     4     5    1
     8     5     8    1
     9     8     9   ar
    10     9    10   ar
    11    10    11   ar
    12    11    12   ar
    13    12    13    1
    14    12    14   ar
    15     5     6   am
    16     6     7    2
    17    17    18    1
    18    18    19    1
    19    19    20   ar
    20    20    21   ar
    21    21    22   ar
    22    22    23   ar
    23    23    24   ar
    24    24    25   ar
    25    25    26   ar
    26    26    27   ar
    27     6     2   am
    28    27    19   ar
    29    14     8   ar
    30    26    21   ar
@<TRIPOS>MOLECULE
*****
 27 30 0 0 0
SMALL
GASTEIGER

@<TRIPOS>ATOM
      1 C         140.6473  145.1507  163.0710 C.3     1  UNL1        0.1123
      2 N         141.4274  143.8791  163.2275 N.am    1  UNL1       -0.2606
      3 C         142.3023  143.2475  162.1855 C.3     1  UNL1        0.1169
      4 C         142.8852  141.9939  162.7675 C.3     1  UNL1        0.1212
      5 N         142.3705  141.8507  164.1691 N.am    1  UNL1       -0.2413
      6 C         141.4695  143.0158  164.4535 C.2     1  UNL1        0.3111
      7 O         140.7390  143.2726  165.7382 O.2     1  UNL1       -0.2520
      8 C         142.6991  140.7378  165.1197 C.ar    1  UNL1        0.0562
      9 C         143.5693  139.6011  164.6716 C.ar    1  UNL1        0.0150
     10 C         143.8978  138.4882  165.6222 C.ar    1  UNL1        0.0021
     11 C         143.3562  138.5120  167.0208 C.ar    1  UNL1        0.0115
     12 C         142.4860  139.6487  167.4689 C.ar    1  UNL1        0.0589
     13 CL        141.9445  139.6725  168.8674 Cl      1  UNL1       -0.0822
     14 C         142.1575  140.7616  166.5183 C.ar    1  UNL1        0.0263
     15 C         139.2000  145.0994  162.6802 C.3     1  UNL1        0.0942
     16 C         137.7520  144.3647  164.7084 C.3     1  UNL1        0.0899
     17 N         138.2825  144.1060  163.3294 N.3     1  UNL1       -0.2658
     18 C         137.8956  142.8540  162.5996 C.3     1  UNL1        0.1057
     19 C         138.5617  141.5530  162.9369 C.ar    1  UNL1        0.0234
     20 C         138.4971  140.8458  164.2581 C.ar    1  UNL1        0.0040
     21 C         139.3049  139.5866  164.1499 C.ar    1  UNL1        0.0062
     22 C         139.5998  138.4955  165.1360 C.ar    1  UNL1        0.0005
     23 C         140.4587  137.3333  164.7340 C.ar    1  UNL1        0.0000
     24 C         141.0225  137.2622  163.3458 C.ar    1  UNL1        0.0005
     25 C         140.7276  138.3532  162.3597 C.ar    1  UNL1        0.0065
     26 C         139.8688  139.5154  162.7618 C.ar    1  UNL1        0.0292
     27 S         139.4095  140.7308  162.0121 S.2     1  UNL1       -0.0899
@<TRIPOS>BOND
     1    16    17    1
     2    17    15    1
     3    15     1    1
     4     1     2    1
     5     2     3    1
     6     3     4    1
     7     4     5    1
     8     5     8    1
     9     8     9   ar
    10     9    10   ar
    11    10    11   ar
    12    11    12   ar
    13    12    13    1
    14    12    14   ar
    15     5     6   am
    16     6     7    2
    17    17    18    1
    18    18    19    1
    19    19    20   ar
    20    20    21   ar
    21    21    22   ar
    22    22    23   ar
    23    23    24   ar
    24    24    25   ar
    25    25    26   ar
    26    26    27   ar
    27     6     2   am
    28    27    19   ar
    29    14     8   ar
    30    26    21   ar
@<TRIPOS>MOLECULE
*****
 27 30 0 0 0
SMALL
GASTEIGER

@<TRIPOS>ATOM
      1 C         144.7716  140.7023  163.2301 C.3     1  UNL1        0.1123
      2 N         144.0455  140.3573  164.4966 N.am    1  UNL1       -0.2606
      3 C         143.7429  138.9737  164.9906 C.3     1  UNL1        0.1169
      4 C         143.0049  139.0968  166.2907 C.3     1  UNL1        0.1212
      5 N         142.8514  140.5564  166.6001 N.am    1  UNL1       -0.2413
      6 C         143.4945  141.3356  165.4913 C.2     1  UNL1        0.3111
      7 O         143.5729  142.8304  165.3943 O.2     1  UNL1       -0.2520
      8 C         142.1737  141.1355  167.8066 C.ar    1  UNL1        0.0562
      9 C         142.8116  142.2693  168.5533 C.ar    1  UNL1        0.0150
     10 C         142.1339  142.8483  169.7597 C.ar    1  UNL1        0.0021
     11 C         140.8184  142.2934  170.2195 C.ar    1  UNL1        0.0115
     12 C         140.1805  141.1595  169.4729 C.ar    1  UNL1        0.0589
     13 CL        138.8650  140.6046  169.9327 Cl      1  UNL1       -0.0822
     14 C         140.8582  140.5806  168.2665 C.ar    1  UNL1        0.0263
     15 C         144.0574  140.6314  161.9130 C.3     1  UNL1        0.0942
     16 C         143.9838  138.0980  161.3415 C.3     1  UNL1        0.0899
     17 N         143.2757  139.4040  161.5488 N.3     1  UNL1       -0.2658
     18 C         141.7861  139.4826  161.3919 C.3     1  UNL1        0.1057
     19 C         140.8940  139.2509  162.5753 C.ar    1  UNL1        0.0234
     20 C         140.4770  137.9158  163.1171 C.ar    1  UNL1        0.0040
     21 C         139.5876  138.1533  164.3013 C.ar    1  UNL1        0.0062
     22 C         138.8814  137.2116  165.2311 C.ar    1  UNL1        0.0005
     23 C         138.0425  137.7519  166.3510 C.ar    1  UNL1        0.0000
     24 C         137.9096  139.2339  166.5411 C.ar    1  UNL1        0.0005
     25 C         138.6158  140.1755  165.6113 C.ar    1  UNL1        0.0065
     26 C         139.4547  139.6353  164.4914 C.ar    1  UNL1        0.0292
     27 S         140.2621  140.3136  163.4247 S.2     1  UNL1       -0.0899
@<TRIPOS>BOND
     1    16    17    1
     2    17    15    1
     3    15     1    1
     4     1     2    1
     5     2     3    1
     6     3     4    1
     7     4     5    1
     8     5     8    1
     9     8     9   ar
    10     9    10   ar
    11    10    11   ar
    12    11    12   ar
    13    12    13    1
    14    12    14   ar
    15     5     6   am
    16     6     7    2
    17    17    18    1
    18    18    19    1
    19    19    20   ar
    20    20    21   ar
    21    21    22   ar
    22    22    23   ar
    23    23    24   ar
    24    24    25   ar
    25    25    26   ar
    26    26    27   ar
    27     6     2   am
    28    27    19   ar
    29    14     8   ar
    30    26    21   ar
@<TRIPOS>MOLECULE
*****
 27 30 0 0 0
SMALL
GASTEIGER

@<TRIPOS>ATOM
      1 C         142.0285  138.0538  164.2000 C.3     1  UNL1        0.1123
      2 N         141.2239  138.8756  165.1630 N.am    1  UNL1       -0.2606
      3 C         139.8189  139.3568  164.9519 C.3     1  UNL1        0.1169
      4 C         139.4098  140.1391  166.1646 C.3     1  UNL1        0.1212
      5 N         140.5619  140.1414  167.1251 N.am    1  UNL1       -0.2413
      6 C         141.6832  139.3605  166.5061 C.2     1  UNL1        0.3111
      7 O         143.0275  139.1088  167.1220 O.2     1  UNL1       -0.2520
      8 C         140.5883  140.8077  168.4688 C.ar    1  UNL1        0.0562
      9 C         140.7400  139.9826  169.7122 C.ar    1  UNL1        0.0150
     10 C         140.7663  140.6488  171.0559 C.ar    1  UNL1        0.0021
     11 C         140.6410  142.1403  171.1561 C.ar    1  UNL1        0.0115
     12 C         140.4892  142.9654  169.9126 C.ar    1  UNL1        0.0589
     13 CL        140.3639  144.4567  170.0128 Cl      1  UNL1       -0.0822
     14 C         140.4629  142.2991  168.5690 C.ar    1  UNL1        0.0263
     15 C         142.7745  138.7229  163.0839 C.3     1  UNL1        0.0942
     16 C         144.9142  139.6288  164.2464 C.3     1  UNL1        0.0899
     17 N         143.7102  139.8570  163.3814 N.3     1  UNL1       -0.2658
     18 C         143.4419  141.2193  162.8137 C.3     1  UNL1        0.1057
     19 C         142.1699  141.9370  163.1557 C.ar    1  UNL1        0.0234
     20 C         141.8498  142.5865  164.4693 C.ar    1  UNL1        0.0040
     21 C         140.4768  143.1823  164.3696 C.ar    1  UNL1        0.0062
     22 C         139.6395  143.9445  165.3534 C.ar    1  UNL1        0.0005
     23 C         138.2738  144.4255  164.9618 C.ar    1  UNL1        0.0000
     24 C         137.7453  144.1442  163.5864 C.ar    1  UNL1        0.0005
     25 C         138.5826  143.3820  162.6026 C.ar    1  UNL1        0.0065
     26 C         139.9483  142.9010  162.9942 C.ar    1  UNL1        0.0292
     27 S         140.9948  142.1314  162.2440 S.2     1  UNL1       -0.0899
@<TRIPOS>BOND
     1    16    17    1
     2    17    15    1
     3    15     1    1
     4     1     2    1
     5     2     3    1
     6     3     4    1
     7     4     5    1
     8     5     8    1
     9     8     9   ar
    10     9    10   ar
    11    10    11   ar
    12    11    12   ar
    13    12    13    1
    14    12    14   ar
    15     5     6   am
    16     6     7    2
    17    17    18    1
    18    18    19    1
    19    19    20   ar
    20    20    21   ar
    21    21    22   ar
    22    22    23   ar
    23    23    24   ar
    24    24    25   ar
    25    25    26   ar
    26    26    27   ar
    27     6     2   am
    28    27    19   ar
    29    14     8   ar
    30    26    21   ar
@<TRIPOS>MOLECULE
*****
 27 30 0 0 0
SMALL
GASTEIGER

@<TRIPOS>ATOM
      1 C         139.8384  144.4410  161.0531 C.3     1  UNL1        0.1123
      2 N         139.3797  143.5839  162.1955 N.am    1  UNL1       -0.2606
      3 C         138.5321  144.0322  163.3491 C.3     1  UNL1        0.1169
      4 C         138.3166  142.8535  164.2515 C.3     1  UNL1        0.1212
      5 N         139.0309  141.6769  163.6556 N.am    1  UNL1       -0.2413
      6 C         139.6880  142.1282  162.3849 C.2     1  UNL1        0.3111
      7 O         140.5092  141.2740  161.4652 O.2     1  UNL1       -0.2520
      8 C         139.0797  140.2918  164.2296 C.ar    1  UNL1        0.0562
      9 C         138.2209  139.9373  165.4071 C.ar    1  UNL1        0.0150
     10 C         138.2697  138.5523  165.9811 C.ar    1  UNL1        0.0021
     11 C         139.1774  137.5219  165.3774 C.ar    1  UNL1        0.0115
     12 C         140.0362  137.8764  164.1999 C.ar    1  UNL1        0.0589
     13 CL        140.9439  136.8460  163.5963 Cl      1  UNL1       -0.0822
     14 C         139.9874  139.2614  163.6260 C.ar    1  UNL1        0.0263
     15 C         141.2015  145.0661  161.0847 C.3     1  UNL1        0.0942
     16 C         142.8345  143.3840  159.9649 C.3     1  UNL1        0.0899
     17 N         142.4232  144.1985  161.1554 N.3     1  UNL1       -0.2658
     18 C         143.2334  144.1455  162.4166 C.3     1  UNL1        0.1057
     19 C         143.1201  142.9624  163.3317 C.ar    1  UNL1        0.0234
     20 C         143.7447  141.6161  163.1137 C.ar    1  UNL1        0.0040
     21 C         143.3729  140.7394  164.2727 C.ar    1  UNL1        0.0062
     22 C         143.7020  139.3126  164.5980 C.ar    1  UNL1        0.0005
     23 C         143.1767  138.6902  165.8576 C.ar    1  UNL1        0.0000
     24 C         142.3223  139.4947  166.7919 C.ar    1  UNL1        0.0005
     25 C         141.9932  140.9215  166.4666 C.ar    1  UNL1        0.0065
     26 C         142.5185  141.5439  165.2070 C.ar    1  UNL1        0.0292
     27 S         142.3623  142.9177  164.6254 S.2     1  UNL1       -0.0899
@<TRIPOS>BOND
     1    16    17    1
     2    17    15    1
     3    15     1    1
     4     1     2    1
     5     2     3    1
     6     3     4    1
     7     4     5    1
     8     5     8    1
     9     8     9   ar
    10     9    10   ar
    11    10    11   ar
    12    11    12   ar
    13    12    13    1
    14    12    14   ar
    15     5     6   am
    16     6     7    2
    17    17    18    1
    18    18    19    1
    19    19    20   ar
    20    20    21   ar
    21    21    22   ar
    22    22    23   ar
    23    23    24   ar
    24    24    25   ar
    25    25    26   ar
    26    26    27   ar
    27     6     2   am
    28    27    19   ar
    29    14     8   ar
    30    26    21   ar
@<TRIPOS>MOLECULE
*****
 27 30 0 0 0
SMALL
GASTEIGER

@<TRIPOS>ATOM
      1 C         143.1223  144.3775  162.6222 C.3     1  UNL1        0.1123
      2 N         141.9615  143.6850  163.2727 N.am    1  UNL1       -0.2606
      3 C         140.5673  143.5985  162.7261 C.3     1  UNL1        0.1169
      4 C         139.7353  142.8176  163.6996 C.3     1  UNL1        0.1212
      5 N         140.6153  142.4214  164.8480 N.am    1  UNL1       -0.2413
      6 C         141.9912  142.9576  164.5842 C.2     1  UNL1        0.3111
      7 O         143.1867  142.7948  165.4753 O.2     1  UNL1       -0.2520
      8 C         140.1934  141.6284  166.0494 C.ar    1  UNL1        0.0562
      9 C         140.7092  141.9954  167.4092 C.ar    1  UNL1        0.0150
     10 C         140.2874  141.2024  168.6105 C.ar    1  UNL1        0.0021
     11 C         139.3498  140.0423  168.4519 C.ar    1  UNL1        0.0115
     12 C         138.8340  139.6752  167.0920 C.ar    1  UNL1        0.0589
     13 CL        137.8965  138.5151  166.9335 Cl      1  UNL1       -0.0822
     14 C         139.2559  140.4682  165.8908 C.ar    1  UNL1        0.0263
     15 C         144.4644  143.7093  162.5764 C.3     1  UNL1        0.0942
     16 C         144.6239  142.5348  160.2645 C.3     1  UNL1        0.0899
     17 N         144.6548  142.4638  161.7625 N.3     1  UNL1       -0.2658
     18 C         144.8761  141.1473  162.4465 C.3     1  UNL1        0.1057
     19 C         143.7037  140.2881  162.8167 C.ar    1  UNL1        0.0234
     20 C         142.3842  140.2425  162.1046 C.ar    1  UNL1        0.0040
     21 C         141.5099  139.2497  162.8118 C.ar    1  UNL1        0.0062
     22 C         140.1050  138.7896  162.5578 C.ar    1  UNL1        0.0005
     23 C         139.4792  137.7614  163.4530 C.ar    1  UNL1        0.0000
     24 C         140.2583  137.1935  164.6021 C.ar    1  UNL1        0.0005
     25 C         141.6632  137.6536  164.8560 C.ar    1  UNL1        0.0065
     26 C         142.2890  138.6818  163.9609 C.ar    1  UNL1        0.0292
     27 S         143.6448  139.3235  163.9639 S.2     1  UNL1       -0.0899
@<TRIPOS>BOND
     1    16    17    1
     2    17    15    1
     3    15     1    1
     4     1     2    1
     5     2     3    1
     6     3     4    1
     7     4     5    1
     8     5     8    1
     9     8     9   ar
    10     9    10   ar
    11    10    11   ar
    12    11    12   ar
    13    12    13    1
    14    12    14   ar
    15     5     6   am
    16     6     7    2
    17    17    18    1
    18    18    19    1
    19    19    20   ar
    20    20    21   ar
    21    21    22   ar
    22    22    23   ar
    23    23    24   ar
    24    24    25   ar
    25    25    26   ar
    26    26    27   ar
    27     6     2   am
    28    27    19   ar
    29    14     8   ar
    30    26    21   ar
@<TRIPOS>MOLECULE
*****
 27 30 0 0 0
SMALL
GASTEIGER

@<TRIPOS>ATOM
      1 C         138.1194  138.7155  166.0168 C.3     1  UNL1        0.1123
      2 N         138.8895  140.0026  166.0366 N.am    1  UNL1       -0.2606
      3 C         139.6600  140.5512  167.2008 C.3     1  UNL1        0.1169
      4 C         140.2709  141.8548  166.7794 C.3     1  UNL1        0.1212
      5 N         139.8779  142.1118  165.3548 N.am    1  UNL1       -0.2413
      6 C         139.0241  140.9671  164.8957 C.2     1  UNL1        0.3111
      7 O         138.4125  140.8138  163.5347 O.2     1  UNL1       -0.2520
      8 C         140.2699  143.3042  164.5335 C.ar    1  UNL1        0.0562
      9 C         139.2191  144.0997  163.8172 C.ar    1  UNL1        0.0150
     10 C         139.6111  145.2921  162.9958 C.ar    1  UNL1        0.0021
     11 C         141.0539  145.6889  162.8908 C.ar    1  UNL1        0.0115
     12 C         142.1046  144.8934  163.6071 C.ar    1  UNL1        0.0589
     13 CL        143.5473  145.2903  163.5020 Cl      1  UNL1       -0.0822
     14 C         141.7126  143.7011  164.4284 C.ar    1  UNL1        0.0263
     15 C         138.7910  137.4464  165.5828 C.3     1  UNL1        0.0942
     16 C         138.8510  137.6513  162.9935 C.3     1  UNL1        0.0899
     17 N         139.5573  137.4061  164.2939 N.3     1  UNL1       -0.2658
     18 C         141.0298  137.1208  164.3054 C.3     1  UNL1        0.1057
     19 C         142.0118  138.2377  164.1098 C.ar    1  UNL1        0.0234
     20 C         142.4115  139.2511  165.1410 C.ar    1  UNL1        0.0040
     21 C         143.4132  140.1770  164.5171 C.ar    1  UNL1        0.0062
     22 C         144.1539  141.3648  165.0561 C.ar    1  UNL1        0.0005
     23 C         145.1139  142.1115  164.1782 C.ar    1  UNL1        0.0000
     24 C         145.3333  141.6705  162.7614 C.ar    1  UNL1        0.0005
     25 C         144.5926  140.4827  162.2224 C.ar    1  UNL1        0.0065
     26 C         143.6326  139.7360  163.1003 C.ar    1  UNL1        0.0292
     27 S         142.7665  138.5374  162.8486 S.2     1  UNL1       -0.0899
@<TRIPOS>BOND
     1    16    17    1
     2    17    15    1
     3    15     1    1
     4     1     2    1
     5     2     3    1
     6     3     4    1
     7     4     5    1
     8     5     8    1
     9     8     9   ar
    10     9    10   ar
    11    10    11   ar
    12    11    12   ar
    13    12    13    1
    14    12    14   ar
    15     5     6   am
    16     6     7    2
    17    17    18    1
    18    18    19    1
    19    19    20   ar
    20    20    21   ar
    21    21    22   ar
    22    22    23   ar
    23    23    24   ar
    24    24    25   ar
    25    25    26   ar
    26    26    27   ar
    27     6     2   am
    28    27    19   ar
    29    14     8   ar
    30    26    21   ar
