@<TRIPOS>MOLECULE
*****
 31 35 0 0 0
SMALL
GASTEIGER

@<TRIPOS>ATOM
      1 O         140.0749  137.6406  161.2236 O.2     1  UNL1       -0.2669
      2 C         140.2263  139.1090  160.9571 C.ar    1  UNL1        0.2634
      3 C         139.9298  140.1025  162.0411 C.ar    1  UNL1        0.0736
      4 C         139.4818  139.6276  163.3916 C.ar    1  UNL1        0.0023
      5 C         139.1852  140.6211  164.4756 C.ar    1  UNL1       -0.0175
      6 C         139.3366  142.0895  164.2091 C.ar    1  UNL1       -0.0022
      7 C         139.0400  143.0830  165.2930 C.ar    1  UNL1       -0.0003
      8 C         139.1915  144.5513  165.0265 C.ar    1  UNL1       -0.0000
      9 C         139.6394  145.0261  163.6760 C.ar    1  UNL1        0.0000
     10 C         139.9360  144.0327  162.5921 C.ar    1  UNL1        0.0015
     11 C         139.7846  142.5644  162.8586 C.ar    1  UNL1        0.0176
     12 C         140.0812  141.5708  161.7746 C.ar    1  UNL1        0.0875
     13 N         140.5292  142.0457  160.4241 N.ar    1  UNL1       -0.2252
     14 C         140.8257  141.0522  159.3401 C.ar    1  UNL1        0.1808
     15 N         140.6743  139.5838  159.6066 N.ar    1  UNL1       -0.2777
     16 C         140.9709  138.5904  158.5226 C.3     1  UNL1        0.1166
     17 C         139.8898  138.1755  157.5692 C.3     1  UNL1        0.0252
     18 C         140.1863  137.1821  156.4852 C.3     1  UNL1        0.0021
     19 C         141.5641  136.6034  156.3546 C.3     1  UNL1        0.0026
     20 C         142.6452  137.0183  157.3081 C.3     1  UNL1        0.0312
     21 C         142.3486  138.0118  158.3921 C.3     1  UNL1        0.1312
     22 O         143.4297  138.4266  159.3455 O.3     1  UNL1       -0.3825
     23 H         144.2521  137.9626  159.1235 H       1  UNL1        0.2104
     24 C         138.7372  140.1462  165.8260 C.3     1  UNL1        0.0542
     25 C         139.7354  139.9873  166.9343 C.ar    1  UNL1        0.0014
     26 C         141.1943  139.8461  166.6152 C.ar    1  UNL1        0.0000
     27 C         142.1925  139.6872  167.7234 C.ar    1  UNL1        0.0305
     28 C         141.7319  139.6694  169.1509 C.ar    1  UNL1        0.1383
     29 CL        142.7301  139.5104  170.2591 Cl      1  UNL1       -0.0613
     30 N         140.2731  139.8105  169.4700 N.ar    1  UNL1       -0.2328
     31 C         139.2748  139.9695  168.3617 C.ar    1  UNL1        0.0959
@<TRIPOS>BOND
     1     1     2    2
     2     2     3   ar
     3     3     4   ar
     4     4     5   ar
     5     5    24    1
     6    24    25    1
     7    25    26   ar
     8    26    27   ar
     9    27    28   ar
    10    28    29    1
    11    28    30   ar
    12    30    31   ar
    13     5     6   ar
    14     6     7   ar
    15     7     8   ar
    16     8     9   ar
    17     9    10   ar
    18    10    11   ar
    19    11    12   ar
    20    12    13   ar
    21    13    14   ar
    22    14    15   ar
    23    16    15    1
    24    16    17    1
    25    17    18    1
    26    18    19    1
    27    19    20    1
    28    20    21    1
    29    21    22    1
    30    15     2   ar
    31    21    16    1
    32    12     3   ar
    33    31    25   ar
    34    11     6   ar
    35    22    23    1
@<TRIPOS>MOLECULE
*****
 31 35 0 0 0
SMALL
GASTEIGER

@<TRIPOS>ATOM
      1 O         141.8180  137.3389  161.2211 O.2     1  UNL1       -0.2669
      2 C         142.1546  138.7818  160.9871 C.ar    1  UNL1        0.2634
      3 C         142.5742  139.6500  162.1361 C.ar    1  UNL1        0.0736
      4 C         142.6571  139.0753  163.5192 C.ar    1  UNL1        0.0023
      5 C         143.0766  139.9434  164.6682 C.ar    1  UNL1       -0.0175
      6 C         143.4132  141.3864  164.4342 C.ar    1  UNL1       -0.0022
      7 C         143.8327  142.2545  165.5832 C.ar    1  UNL1       -0.0003
      8 C         144.1693  143.6974  165.3492 C.ar    1  UNL1       -0.0000
      9 C         144.0863  144.2721  163.9662 C.ar    1  UNL1        0.0000
     10 C         143.6668  143.4039  162.8172 C.ar    1  UNL1        0.0015
     11 C         143.3303  141.9611  163.0512 C.ar    1  UNL1        0.0176
     12 C         142.9107  141.0929  161.9021 C.ar    1  UNL1        0.0875
     13 N         142.8278  141.6676  160.5191 N.ar    1  UNL1       -0.2252
     14 C         142.4083  140.7994  159.3700 C.ar    1  UNL1        0.1808
     15 N         142.0717  139.3565  159.6040 N.ar    1  UNL1       -0.2777
     16 C         141.6522  138.4884  158.4550 C.3     1  UNL1        0.1166
     17 C         142.6722  137.6657  157.7251 C.3     1  UNL1        0.0252
     18 C         142.2527  136.7975  156.5761 C.3     1  UNL1        0.0021
     19 C         140.8131  136.7521  156.1569 C.3     1  UNL1        0.0026
     20 C         139.7931  137.5747  156.8868 C.3     1  UNL1        0.0312
     21 C         140.2127  138.4429  158.0359 C.3     1  UNL1        0.1312
     22 O         139.1927  139.2656  158.7658 O.3     1  UNL1       -0.3825
     23 H         138.3184  139.1214  158.3711 H       1  UNL1        0.2104
     24 C         143.1595  139.3687  166.0512 C.3     1  UNL1        0.0542
     25 C         142.0523  139.6141  167.0330 C.ar    1  UNL1        0.0014
     26 C         140.6502  139.8275  166.5444 C.ar    1  UNL1        0.0000
     27 C         139.5431  140.0729  167.5262 C.ar    1  UNL1        0.0305
     28 C         139.8379  140.1049  168.9966 C.ar    1  UNL1        0.1383
     29 CL        138.7307  140.3503  169.9784 Cl      1  UNL1       -0.0613
     30 N         141.2399  139.8915  169.4852 N.ar    1  UNL1       -0.2328
     31 C         142.3472  139.6461  168.5034 C.ar    1  UNL1        0.0959
@<TRIPOS>BOND
     1     1     2    2
     2     2     3   ar
     3     3     4   ar
     4     4     5   ar
     5     5    24    1
     6    24    25    1
     7    25    26   ar
     8    26    27   ar
     9    27    28   ar
    10    28    29    1
    11    28    30   ar
    12    30    31   ar
    13     5     6   ar
    14     6     7   ar
    15     7     8   ar
    16     8     9   ar
    17     9    10   ar
    18    10    11   ar
    19    11    12   ar
    20    12    13   ar
    21    13    14   ar
    22    14    15   ar
    23    16    15    1
    24    16    17    1
    25    17    18    1
    26    18    19    1
    27    19    20    1
    28    20    21    1
    29    21    22    1
    30    15     2   ar
    31    21    16    1
    32    12     3   ar
    33    31    25   ar
    34    11     6   ar
    35    22    23    1
@<TRIPOS>MOLECULE
*****
 31 35 0 0 0
SMALL
GASTEIGER

@<TRIPOS>ATOM
      1 O         139.0436  142.7371  161.1673 O.2     1  UNL1       -0.2669
      2 C         140.4886  142.3349  161.1720 C.ar    1  UNL1        0.2634
      3 C         141.0376  141.5235  162.3080 C.ar    1  UNL1        0.0736
      4 C         140.1415  141.1144  163.4392 C.ar    1  UNL1        0.0023
      5 C         140.6904  140.3031  164.5751 C.ar    1  UNL1       -0.0175
      6 C         142.1355  139.9008  164.5799 C.ar    1  UNL1       -0.0022
      7 C         142.6844  139.0895  165.7158 C.ar    1  UNL1       -0.0003
      8 C         144.1295  138.6872  165.7205 C.ar    1  UNL1       -0.0000
      9 C         145.0255  139.0963  164.5893 C.ar    1  UNL1        0.0000
     10 C         144.4766  139.9076  163.4533 C.ar    1  UNL1        0.0015
     11 C         143.0316  140.3099  163.4486 C.ar    1  UNL1        0.0176
     12 C         142.4826  141.1213  162.3127 C.ar    1  UNL1        0.0875
     13 N         143.3787  141.5304  161.1815 N.ar    1  UNL1       -0.2252
     14 C         142.8298  142.3417  160.0455 C.ar    1  UNL1        0.1808
     15 N         141.3847  142.7440  160.0408 N.ar    1  UNL1       -0.2777
     16 C         140.8357  143.5553  158.9049 C.3     1  UNL1        0.1166
     17 C         140.1402  142.8739  157.7639 C.3     1  UNL1        0.0252
     18 C         139.5913  143.6852  156.6280 C.3     1  UNL1        0.0021
     19 C         139.7379  145.1781  156.6330 C.3     1  UNL1        0.0026
     20 C         140.4334  145.8595  157.7740 C.3     1  UNL1        0.0312
     21 C         140.9823  145.0481  158.9099 C.3     1  UNL1        0.1312
     22 O         141.6779  145.7295  160.0509 O.3     1  UNL1       -0.3825
     23 H         141.6862  146.6875  159.8988 H       1  UNL1        0.2104
     24 C         139.7943  139.8940  165.7064 C.3     1  UNL1        0.0542
     25 C         139.8492  140.6318  167.0112 C.ar    1  UNL1        0.0014
     26 C         140.4129  142.0209  167.0642 C.ar    1  UNL1        0.0000
     27 C         140.4679  142.7587  168.3690 C.ar    1  UNL1        0.0305
     28 C         139.9591  142.1075  169.6208 C.ar    1  UNL1        0.1383
     29 CL        140.0140  142.8453  170.9257 Cl      1  UNL1       -0.0613
     30 N         139.3954  140.7185  169.5679 N.ar    1  UNL1       -0.2328
     31 C         139.3405  139.9806  168.2630 C.ar    1  UNL1        0.0959
@<TRIPOS>BOND
     1     1     2    2
     2     2     3   ar
     3     3     4   ar
     4     4     5   ar
     5     5    24    1
     6    24    25    1
     7    25    26   ar
     8    26    27   ar
     9    27    28   ar
    10    28    29    1
    11    28    30   ar
    12    30    31   ar
    13     5     6   ar
    14     6     7   ar
    15     7     8   ar
    16     8     9   ar
    17     9    10   ar
    18    10    11   ar
    19    11    12   ar
    20    12    13   ar
    21    13    14   ar
    22    14    15   ar
    23    16    15    1
    24    16    17    1
    25    17    18    1
    26    18    19    1
    27    19    20    1
    28    20    21    1
    29    21    22    1
    30    15     2   ar
    31    21    16    1
    32    12     3   ar
    33    31    25   ar
    34    11     6   ar
    35    22    23    1
@<TRIPOS>MOLECULE
*****
 31 35 0 0 0
SMALL
GASTEIGER

@<TRIPOS>ATOM
      1 O         139.4139  144.3542  160.6757 O.2     1  UNL1       -0.2669
      2 C         140.6518  143.5299  160.4808 C.ar    1  UNL1        0.2634
      3 C         141.2496  142.7887  161.6398 C.ar    1  UNL1        0.0736
      4 C         140.6094  142.8719  162.9938 C.ar    1  UNL1        0.0023
      5 C         141.2071  142.1308  164.1529 C.ar    1  UNL1       -0.0175
      6 C         142.4450  141.3064  163.9580 C.ar    1  UNL1       -0.0022
      7 C         143.0427  140.5653  165.1170 C.ar    1  UNL1       -0.0003
      8 C         144.2806  139.7410  164.9221 C.ar    1  UNL1       -0.0000
      9 C         144.9209  139.6578  163.5682 C.ar    1  UNL1        0.0000
     10 C         144.3232  140.3989  162.4091 C.ar    1  UNL1        0.0015
     11 C         143.0852  141.2232  162.6040 C.ar    1  UNL1        0.0176
     12 C         142.4875  141.9644  161.4449 C.ar    1  UNL1        0.0875
     13 N         143.1277  141.8812  160.0910 N.ar    1  UNL1       -0.2252
     14 C         142.5300  142.6223  158.9319 C.ar    1  UNL1        0.1808
     15 N         141.2920  143.4467  159.1268 N.ar    1  UNL1       -0.2777
     16 C         140.6943  144.1878  157.9677 C.3     1  UNL1        0.1166
     17 C         139.5192  143.6117  157.2347 C.3     1  UNL1        0.0252
     18 C         138.9215  144.3528  156.0757 C.3     1  UNL1        0.0021
     19 C         139.4989  145.6701  155.6496 C.3     1  UNL1        0.0026
     20 C         140.6740  146.2462  156.3826 C.3     1  UNL1        0.0312
     21 C         141.2717  145.5050  157.5417 C.3     1  UNL1        0.1312
     22 O         142.4467  146.0811  158.2747 O.3     1  UNL1       -0.3825
     23 H         142.6928  146.9298  157.8748 H       1  UNL1        0.2104
     24 C         140.5669  142.2140  165.5068 C.3     1  UNL1        0.0542
     25 C         139.7115  141.0859  166.0026 C.ar    1  UNL1        0.0014
     26 C         138.8024  140.3613  165.0547 C.ar    1  UNL1        0.0000
     27 C         137.9471  139.2333  165.5505 C.ar    1  UNL1        0.0305
     28 C         138.0008  138.8297  166.9942 C.ar    1  UNL1        0.1383
     29 CL        137.1455  137.7017  167.4900 Cl      1  UNL1       -0.0613
     30 N         138.9099  139.5542  167.9421 N.ar    1  UNL1       -0.2328
     31 C         139.7653  140.6824  167.4463 C.ar    1  UNL1        0.0959
@<TRIPOS>BOND
     1     1     2    2
     2     2     3   ar
     3     3     4   ar
     4     4     5   ar
     5     5    24    1
     6    24    25    1
     7    25    26   ar
     8    26    27   ar
     9    27    28   ar
    10    28    29    1
    11    28    30   ar
    12    30    31   ar
    13     5     6   ar
    14     6     7   ar
    15     7     8   ar
    16     8     9   ar
    17     9    10   ar
    18    10    11   ar
    19    11    12   ar
    20    12    13   ar
    21    13    14   ar
    22    14    15   ar
    23    16    15    1
    24    16    17    1
    25    17    18    1
    26    18    19    1
    27    19    20    1
    28    20    21    1
    29    21    22    1
    30    15     2   ar
    31    21    16    1
    32    12     3   ar
    33    31    25   ar
    34    11     6   ar
    35    22    23    1
@<TRIPOS>MOLECULE
*****
 31 35 0 0 0
SMALL
GASTEIGER

@<TRIPOS>ATOM
      1 O         142.7188  144.4400  161.1100 O.2     1  UNL1       -0.2669
      2 C         142.1306  143.0845  160.8519 C.ar    1  UNL1        0.2634
      3 C         142.1757  142.0317  161.9194 C.ar    1  UNL1        0.0736
      4 C         142.8090  142.3344  163.2451 C.ar    1  UNL1        0.0023
      5 C         142.8541  141.2817  164.3126 C.ar    1  UNL1       -0.0175
      6 C         142.2659  139.9261  164.0545 C.ar    1  UNL1       -0.0022
      7 C         142.3110  138.8734  165.1221 C.ar    1  UNL1       -0.0003
      8 C         141.7228  137.5179  164.8640 C.ar    1  UNL1       -0.0000
      9 C         141.0896  137.2151  163.5383 C.ar    1  UNL1        0.0000
     10 C         141.0445  138.2679  162.4708 C.ar    1  UNL1        0.0015
     11 C         141.6326  139.6234  162.7289 C.ar    1  UNL1        0.0176
     12 C         141.5875  140.6762  161.6613 C.ar    1  UNL1        0.0875
     13 N         140.9543  140.3734  160.3357 N.ar    1  UNL1       -0.2252
     14 C         140.9092  141.4261  159.2682 C.ar    1  UNL1        0.1808
     15 N         141.4974  142.7817  159.5262 N.ar    1  UNL1       -0.2777
     16 C         141.4523  143.8344  158.4587 C.3     1  UNL1        0.1166
     17 C         142.3188  143.7055  157.2411 C.3     1  UNL1        0.0252
     18 C         142.2738  144.7583  156.1736 C.3     1  UNL1        0.0021
     19 C         141.3620  145.9400  156.3236 C.3     1  UNL1        0.0026
     20 C         140.4954  146.0689  157.5411 C.3     1  UNL1        0.0312
     21 C         140.5406  145.0161  158.6087 C.3     1  UNL1        0.1312
     22 O         139.6740  145.1450  159.8263 O.3     1  UNL1       -0.3825
     23 H         139.1504  145.9593  159.7657 H       1  UNL1        0.2104
     24 C         143.4873  141.5845  165.6382 C.3     1  UNL1        0.0542
     25 C         142.6422  142.0629  166.7814 C.ar    1  UNL1        0.0014
     26 C         141.1899  142.3689  166.5637 C.ar    1  UNL1        0.0000
     27 C         140.3447  142.8473  167.7068 C.ar    1  UNL1        0.0305
     28 C         140.9517  143.0197  169.0676 C.ar    1  UNL1        0.1383
     29 CL        140.1066  143.4981  170.2108 Cl      1  UNL1       -0.0613
     30 N         142.4039  142.7138  169.2853 N.ar    1  UNL1       -0.2328
     31 C         143.2492  142.2353  168.1422 C.ar    1  UNL1        0.0959
@<TRIPOS>BOND
     1     1     2    2
     2     2     3   ar
     3     3     4   ar
     4     4     5   ar
     5     5    24    1
     6    24    25    1
     7    25    26   ar
     8    26    27   ar
     9    27    28   ar
    10    28    29    1
    11    28    30   ar
    12    30    31   ar
    13     5     6   ar
    14     6     7   ar
    15     7     8   ar
    16     8     9   ar
    17     9    10   ar
    18    10    11   ar
    19    11    12   ar
    20    12    13   ar
    21    13    14   ar
    22    14    15   ar
    23    16    15    1
    24    16    17    1
    25    17    18    1
    26    18    19    1
    27    19    20    1
    28    20    21    1
    29    21    22    1
    30    15     2   ar
    31    21    16    1
    32    12     3   ar
    33    31    25   ar
    34    11     6   ar
    35    22    23    1
@<TRIPOS>MOLECULE
*****
 31 35 0 0 0
SMALL
GASTEIGER

@<TRIPOS>ATOM
      1 O         140.4700  144.7685  161.3837 O.2     1  UNL1       -0.2669
      2 C         140.2334  143.3003  161.1883 C.ar    1  UNL1        0.2634
      3 C         139.9289  142.4261  162.3686 C.ar    1  UNL1        0.0736
      4 C         139.8610  143.0202  163.7443 C.ar    1  UNL1        0.0023
      5 C         139.5564  142.1461  164.9245 C.ar    1  UNL1       -0.0175
      6 C         139.3198  140.6777  164.7292 C.ar    1  UNL1       -0.0022
      7 C         139.0153  139.8036  165.9095 C.ar    1  UNL1       -0.0003
      8 C         138.7787  138.3353  165.7141 C.ar    1  UNL1       -0.0000
      9 C         138.8466  137.7412  164.3385 C.ar    1  UNL1        0.0000
     10 C         139.1511  138.6153  163.1582 C.ar    1  UNL1        0.0015
     11 C         139.3877  140.0836  163.3536 C.ar    1  UNL1        0.0176
     12 C         139.6923  140.9578  162.1732 C.ar    1  UNL1        0.0875
     13 N         139.7602  140.3637  160.7976 N.ar    1  UNL1       -0.2252
     14 C         140.0648  141.2378  159.6173 C.ar    1  UNL1        0.1808
     15 N         140.3014  142.7062  159.8126 N.ar    1  UNL1       -0.2777
     16 C         140.6059  143.5803  158.6324 C.3     1  UNL1        0.1166
     17 C         139.5518  143.8354  157.5962 C.3     1  UNL1        0.0252
     18 C         139.8563  144.7095  156.4159 C.3     1  UNL1        0.0021
     19 C         141.2150  145.3286  156.2717 C.3     1  UNL1        0.0026
     20 C         142.2692  145.0735  157.3079 C.3     1  UNL1        0.0312
     21 C         141.9646  144.1993  158.4883 C.3     1  UNL1        0.1312
     22 O         143.0187  143.9441  159.5245 O.3     1  UNL1       -0.3825
     23 H         143.8314  144.4147  159.2816 H       1  UNL1        0.2104
     24 C         139.4885  142.7402  166.3002 C.3     1  UNL1        0.0542
     25 C         140.6760  142.6565  167.2128 C.ar    1  UNL1        0.0014
     26 C         140.5260  142.9781  168.6702 C.ar    1  UNL1        0.0000
     27 C         141.7134  142.8944  169.5828 C.ar    1  UNL1        0.0305
     28 C         143.0509  142.4890  169.0380 C.ar    1  UNL1        0.1383
     29 CL        144.2384  142.4053  169.9506 Cl      1  UNL1       -0.0613
     30 N         143.2010  142.1674  167.5807 N.ar    1  UNL1       -0.2328
     31 C         142.0135  142.2511  166.6680 C.ar    1  UNL1        0.0959
@<TRIPOS>BOND
     1     1     2    2
     2     2     3   ar
     3     3     4   ar
     4     4     5   ar
     5     5    24    1
     6    24    25    1
     7    25    26   ar
     8    26    27   ar
     9    27    28   ar
    10    28    29    1
    11    28    30   ar
    12    30    31   ar
    13     5     6   ar
    14     6     7   ar
    15     7     8   ar
    16     8     9   ar
    17     9    10   ar
    18    10    11   ar
    19    11    12   ar
    20    12    13   ar
    21    13    14   ar
    22    14    15   ar
    23    16    15    1
    24    16    17    1
    25    17    18    1
    26    18    19    1
    27    19    20    1
    28    20    21    1
    29    21    22    1
    30    15     2   ar
    31    21    16    1
    32    12     3   ar
    33    31    25   ar
    34    11     6   ar
    35    22    23    1
@<TRIPOS>MOLECULE
*****
 31 35 0 0 0
SMALL
GASTEIGER

@<TRIPOS>ATOM
      1 O         141.5894  142.2837  160.6368 O.2     1  UNL1       -0.2669
      2 C         141.0370  140.9289  160.9676 C.ar    1  UNL1        0.2634
      3 C         140.4849  140.6576  162.3357 C.ar    1  UNL1        0.0736
      4 C         140.4852  141.7412  163.3730 C.ar    1  UNL1        0.0023
      5 C         139.9332  141.4699  164.7410 C.ar    1  UNL1       -0.0175
      6 C         139.3807  140.1151  165.0718 C.ar    1  UNL1       -0.0022
      7 C         138.8286  139.8439  166.4399 C.ar    1  UNL1       -0.0003
      8 C         138.2763  138.4891  166.7706 C.ar    1  UNL1       -0.0000
      9 C         138.2759  137.4056  165.7333 C.ar    1  UNL1        0.0000
     10 C         138.8280  137.6768  164.3653 C.ar    1  UNL1        0.0015
     11 C         139.3804  139.0316  164.0345 C.ar    1  UNL1        0.0176
     12 C         139.9325  139.3029  162.6664 C.ar    1  UNL1        0.0875
     13 N         139.9322  138.2194  161.6291 N.ar    1  UNL1       -0.2252
     14 C         140.4842  138.4906  160.2611 C.ar    1  UNL1        0.1808
     15 N         141.0367  139.8454  159.9303 N.ar    1  UNL1       -0.2777
     16 C         141.5887  140.1167  158.5622 C.3     1  UNL1        0.1166
     17 C         140.7219  140.7524  157.5161 C.3     1  UNL1        0.0252
     18 C         141.2739  141.0236  156.1481 C.3     1  UNL1        0.0021
     19 C         142.6930  140.6591  155.8261 C.3     1  UNL1        0.0026
     20 C         143.5598  140.0234  156.8722 C.3     1  UNL1        0.0312
     21 C         143.0077  139.7522  158.2403 C.3     1  UNL1        0.1312
     22 O         143.8746  139.1164  159.2864 O.3     1  UNL1       -0.3825
     23 H         144.7552  138.9465  158.9170 H       1  UNL1        0.2104
     24 C         139.9335  142.5534  165.7783 C.3     1  UNL1        0.0542
     25 C         140.9697  142.5532  166.8628 C.ar    1  UNL1        0.0014
     26 C         140.5498  142.6181  168.3014 C.ar    1  UNL1        0.0000
     27 C         141.5861  142.6179  169.3859 C.ar    1  UNL1        0.0305
     28 C         143.0423  142.5527  169.0318 C.ar    1  UNL1        0.1383
     29 CL        144.0785  142.5525  170.1163 Cl      1  UNL1       -0.0613
     30 N         143.4622  142.4878  167.5933 N.ar    1  UNL1       -0.2328
     31 C         142.4259  142.4880  166.5087 C.ar    1  UNL1        0.0959
@<TRIPOS>BOND
     1     1     2    2
     2     2     3   ar
     3     3     4   ar
     4     4     5   ar
     5     5    24    1
     6    24    25    1
     7    25    26   ar
     8    26    27   ar
     9    27    28   ar
    10    28    29    1
    11    28    30   ar
    12    30    31   ar
    13     5     6   ar
    14     6     7   ar
    15     7     8   ar
    16     8     9   ar
    17     9    10   ar
    18    10    11   ar
    19    11    12   ar
    20    12    13   ar
    21    13    14   ar
    22    14    15   ar
    23    16    15    1
    24    16    17    1
    25    17    18    1
    26    18    19    1
    27    19    20    1
    28    20    21    1
    29    21    22    1
    30    15     2   ar
    31    21    16    1
    32    12     3   ar
    33    31    25   ar
    34    11     6   ar
    35    22    23    1
@<TRIPOS>MOLECULE
*****
 31 35 0 0 0
SMALL
GASTEIGER

@<TRIPOS>ATOM
      1 O         139.5466  144.7735  159.6150 O.2     1  UNL1       -0.2669
      2 C         140.9484  144.2403  159.5900 C.ar    1  UNL1        0.2634
      3 C         141.5893  143.7561  160.8569 C.ar    1  UNL1        0.0736
      4 C         140.8284  143.8050  162.1486 C.ar    1  UNL1        0.0023
      5 C         141.4692  143.3208  163.4154 C.ar    1  UNL1       -0.0175
      6 C         142.8711  142.7876  163.3905 C.ar    1  UNL1       -0.0022
      7 C         143.5119  142.3034  164.6573 C.ar    1  UNL1       -0.0003
      8 C         144.9137  141.7702  164.6324 C.ar    1  UNL1       -0.0000
      9 C         145.6747  141.7213  163.3406 C.ar    1  UNL1        0.0000
     10 C         145.0339  142.2055  162.0738 C.ar    1  UNL1        0.0015
     11 C         143.6321  142.7387  162.0988 C.ar    1  UNL1        0.0176
     12 C         142.9911  143.2229  160.8319 C.ar    1  UNL1        0.0875
     13 N         143.7521  143.1740  159.5402 N.ar    1  UNL1       -0.2252
     14 C         143.1112  143.6582  158.2734 C.ar    1  UNL1        0.1808
     15 N         141.7094  144.1914  158.2983 N.ar    1  UNL1       -0.2777
     16 C         141.0685  144.6756  157.0315 C.3     1  UNL1        0.1166
     17 C         141.1219  146.1311  156.6728 C.3     1  UNL1        0.0252
     18 C         140.4811  146.6153  155.4060 C.3     1  UNL1        0.0021
     19 C         139.7868  145.6440  154.4979 C.3     1  UNL1        0.0026
     20 C         139.7334  144.1885  154.8566 C.3     1  UNL1        0.0312
     21 C         140.3743  143.7043  156.1235 C.3     1  UNL1        0.1312
     22 O         140.3209  142.2488  156.4822 O.3     1  UNL1       -0.3825
     23 H         139.8394  141.7637  155.7940 H       1  UNL1        0.2104
     24 C         140.7083  143.3697  164.7071 C.3     1  UNL1        0.0542
     25 C         139.9839  142.1512  165.1974 C.ar    1  UNL1        0.0014
     26 C         140.3525  141.5396  166.5166 C.ar    1  UNL1        0.0000
     27 C         139.6281  140.3211  167.0069 C.ar    1  UNL1        0.0305
     28 C         138.5350  139.7142  166.1782 C.ar    1  UNL1        0.1383
     29 CL        137.8106  138.4957  166.6685 Cl      1  UNL1       -0.0613
     30 N         138.1663  140.3258  164.8591 N.ar    1  UNL1       -0.2328
     31 C         138.8907  141.5444  164.3687 C.ar    1  UNL1        0.0959
@<TRIPOS>BOND
     1     1     2    2
     2     2     3   ar
     3     3     4   ar
     4     4     5   ar
     5     5    24    1
     6    24    25    1
     7    25    26   ar
     8    26    27   ar
     9    27    28   ar
    10    28    29    1
    11    28    30   ar
    12    30    31   ar
    13     5     6   ar
    14     6     7   ar
    15     7     8   ar
    16     8     9   ar
    17     9    10   ar
    18    10    11   ar
    19    11    12   ar
    20    12    13   ar
    21    13    14   ar
    22    14    15   ar
    23    16    15    1
    24    16    17    1
    25    17    18    1
    26    18    19    1
    27    19    20    1
    28    20    21    1
    29    21    22    1
    30    15     2   ar
    31    21    16    1
    32    12     3   ar
    33    31    25   ar
    34    11     6   ar
    35    22    23    1
@<TRIPOS>MOLECULE
*****
 31 35 0 0 0
SMALL
GASTEIGER

@<TRIPOS>ATOM
      1 O         142.0744  142.4949  160.7750 O.2     1  UNL1       -0.2669
      2 C         141.5322  141.1161  161.0089 C.ar    1  UNL1        0.2634
      3 C         140.8510  140.7878  162.3044 C.ar    1  UNL1        0.0736
      4 C         140.7121  141.8384  163.3660 C.ar    1  UNL1        0.0023
      5 C         140.0309  141.5101  164.6614 C.ar    1  UNL1       -0.0175
      6 C         139.4887  140.1312  164.8954 C.ar    1  UNL1       -0.0022
      7 C         138.8075  139.8030  166.1908 C.ar    1  UNL1       -0.0003
      8 C         138.2653  138.4241  166.4247 C.ar    1  UNL1       -0.0000
      9 C         138.4043  137.3735  165.3631 C.ar    1  UNL1        0.0000
     10 C         139.0854  137.7018  164.0677 C.ar    1  UNL1        0.0015
     11 C         139.6276  139.0806  163.8338 C.ar    1  UNL1        0.0176
     12 C         140.3088  139.4089  162.5383 C.ar    1  UNL1        0.0875
     13 N         140.4477  138.3583  161.4767 N.ar    1  UNL1       -0.2252
     14 C         141.1288  138.6865  160.1812 C.ar    1  UNL1        0.1808
     15 N         141.6711  140.0655  159.9473 N.ar    1  UNL1       -0.2777
     16 C         142.3522  140.3937  158.6518 C.3     1  UNL1        0.1166
     17 C         143.8484  140.3427  158.5572 C.3     1  UNL1        0.0252
     18 C         144.5295  140.6710  157.2617 C.3     1  UNL1        0.0021
     19 C         143.7145  141.0502  156.0608 C.3     1  UNL1        0.0026
     20 C         142.2184  141.1011  156.1555 C.3     1  UNL1        0.0312
     21 C         141.5372  140.7729  157.4510 C.3     1  UNL1        0.1312
     22 O         140.0411  140.8238  157.5457 O.3     1  UNL1       -0.3825
     23 H         139.6715  141.0838  156.6874 H       1  UNL1        0.2104
     24 C         139.8920  142.5607  165.7230 C.3     1  UNL1        0.0542
     25 C         140.8440  142.5865  166.8818 C.ar    1  UNL1        0.0014
     26 C         140.3568  142.9827  168.2441 C.ar    1  UNL1        0.0000
     27 C         141.3087  143.0084  169.4030 C.ar    1  UNL1        0.0305
     28 C         142.7480  142.6379  169.1997 C.ar    1  UNL1        0.1383
     29 CL        143.6999  142.6637  170.3585 Cl      1  UNL1       -0.0613
     30 N         143.2352  142.2417  167.8375 N.ar    1  UNL1       -0.2328
     31 C         142.2832  142.2160  166.6786 C.ar    1  UNL1        0.0959
@<TRIPOS>BOND
     1     1     2    2
     2     2     3   ar
     3     3     4   ar
     4     4     5   ar
     5     5    24    1
     6    24    25    1
     7    25    26   ar
     8    26    27   ar
     9    27    28   ar
    10    28    29    1
    11    28    30   ar
    12    30    31   ar
    13     5     6   ar
    14     6     7   ar
    15     7     8   ar
    16     8     9   ar
    17     9    10   ar
    18    10    11   ar
    19    11    12   ar
    20    12    13   ar
    21    13    14   ar
    22    14    15   ar
    23    16    15    1
    24    16    17    1
    25    17    18    1
    26    18    19    1
    27    19    20    1
    28    20    21    1
    29    21    22    1
    30    15     2   ar
    31    21    16    1
    32    12     3   ar
    33    31    25   ar
    34    11     6   ar
    35    22    23    1
