@<TRIPOS>MOLECULE
*****
 33 36 0 0 0
SMALL
GASTEIGER

@<TRIPOS>ATOM
      1 C         143.2079  141.5353  161.0915 C.ar    1  UNL1        0.2394
      2 N         142.4618  140.3252  161.5700 N.ar    1  UNL1       -0.1779
      3 C         142.3298  139.1251  160.6800 C.ar    1  UNL1        0.2232
      4 N         142.9439  139.1350  159.3114 N.ar    1  UNL1       -0.2128
      5 C         143.6899  140.3451  158.8329 C.ar    1  UNL1        0.0952
      6 C         144.3960  140.6441  157.5437 C.ar    1  UNL1        0.0268
      7 C         144.9644  142.0291  157.6370 C.ar    1  UNL1        0.0372
      8 S         144.6096  142.5861  158.9838 S.2     1  UNL1       -0.0803
      9 C         143.8220  141.5453  159.7230 C.ar    1  UNL1        0.1008
     10 N         141.5837  137.9149  161.1586 N.pl3   1  UNL1       -0.2824
     11 H         141.6515  137.0670  160.6630 H       1  UNL1        0.1551
     12 C         140.7343  137.9968  162.3922 C.ar    1  UNL1        0.0528
     13 C         141.0600  137.1473  163.5848 C.ar    1  UNL1        0.0155
     14 C         140.2106  137.2291  164.8184 C.ar    1  UNL1        0.0138
     15 C         139.0355  138.1605  164.8594 C.ar    1  UNL1        0.0959
     16 C         138.7098  139.0100  163.6669 C.ar    1  UNL1        0.1509
     17 F         137.5346  139.9414  163.7078 F       1  UNL1       -0.2034
     18 C         139.5592  138.9281  162.4332 C.ar    1  UNL1        0.0450
     19 C         138.1860  138.2424  166.0930 C.1     1  UNL1        0.1027
     20 N         137.3366  138.3243  167.3266 N.1     1  UNL1       -0.1908
     21 O         143.3400  142.7355  161.9815 O.3     1  UNL1       -0.4362
     22 C         145.4179  141.9606  164.0019 C.3     1  UNL1        0.0342
     23 C         144.0136  142.2493  164.4431 C.ar    1  UNL1        0.0124
     24 C         143.6483  142.1505  165.8946 C.ar    1  UNL1       -0.0012
     25 C         142.2439  142.4391  166.3359 C.ar    1  UNL1        0.0003
     26 C         141.2051  142.8266  165.3257 C.ar    1  UNL1       -0.0012
     27 C         141.5704  142.9254  163.8742 C.ar    1  UNL1        0.0124
     28 C         140.5315  143.3129  162.8641 C.3     1  UNL1        0.0342
     29 C         142.9746  142.6367  163.4329 C.ar    1  UNL1        0.1391
     30 C         141.8787  142.3403  167.7874 C.2     1  UNL1        0.0109
     31 C         140.5951  142.9398  168.2802 C.2     1  UNL1        0.0780
     32 C         140.2298  142.8410  169.7318 C.1     1  UNL1        0.1011
     33 N         139.8645  142.7421  171.1832 N.1     1  UNL1       -0.1908
@<TRIPOS>BOND
     1    22    23    1
     2    23    24   ar
     3    24    25   ar
     4    25    30    1
     5    30    31    2
     6    31    32    1
     7    32    33    3
     8    25    26   ar
     9    26    27   ar
    10    27    28    1
    11    27    29   ar
    12    29    21    1
    13    21     1    1
    14     1     2   ar
    15     2     3   ar
    16     3    10    1
    17    10    12    1
    18    12    13   ar
    19    13    14   ar
    20    14    15   ar
    21    15    19    1
    22    19    20    3
    23    15    16   ar
    24    16    17    1
    25    16    18   ar
    26     3     4   ar
    27     4     5   ar
    28     5     6   ar
    29     6     7   ar
    30     7     8   ar
    31     8     9   ar
    32    29    23   ar
    33     9     1   ar
    34    18    12   ar
    35     9     5   ar
    36    10    11    1
@<TRIPOS>MOLECULE
*****
 33 36 0 0 0
SMALL
GASTEIGER

@<TRIPOS>ATOM
      1 C         140.3110  142.0020  166.9643 C.ar    1  UNL1        0.2394
      2 N         139.6531  141.0136  166.0477 N.ar    1  UNL1       -0.1779
      3 C         139.0617  139.7527  166.6046 C.ar    1  UNL1        0.2232
      4 N         139.1281  139.4800  168.0782 N.ar    1  UNL1       -0.2128
      5 C         139.7860  140.4685  168.9948 C.ar    1  UNL1        0.0952
      6 C         140.0009  140.4719  170.4793 C.ar    1  UNL1        0.0268
      7 C         140.7252  141.7350  170.8398 C.ar    1  UNL1        0.0372
      8 S         140.9579  142.5122  169.5782 S.2     1  UNL1       -0.0803
      9 C         140.3774  141.7295  168.4379 C.ar    1  UNL1        0.1008
     10 N         138.4038  138.7642  165.6879 N.pl3   1  UNL1       -0.2824
     11 H         137.9910  137.9500  166.0566 H       1  UNL1        0.1551
     12 C         138.3748  139.0163  164.2095 C.ar    1  UNL1        0.0528
     13 C         138.7415  137.9194  163.2543 C.ar    1  UNL1        0.0155
     14 C         138.7125  138.1716  161.7759 C.ar    1  UNL1        0.0138
     15 C         138.3168  139.5205  161.2528 C.ar    1  UNL1        0.0959
     16 C         137.9502  140.6174  162.2080 C.ar    1  UNL1        0.1509
     17 F         137.5545  141.9665  161.6849 F       1  UNL1       -0.2034
     18 C         137.9791  140.3653  163.6864 C.ar    1  UNL1        0.0450
     19 C         138.2878  139.7727  159.7744 C.1     1  UNL1        0.1027
     20 N         138.2588  140.0249  158.2961 N.1     1  UNL1       -0.1908
     21 O         140.9024  143.2630  166.4074 O.3     1  UNL1       -0.4362
     22 C         138.5504  144.9406  165.5989 C.3     1  UNL1        0.0342
     23 C         139.5175  144.4547  164.5604 C.ar    1  UNL1        0.0124
     24 C         139.3086  144.8076  163.1175 C.ar    1  UNL1       -0.0012
     25 C         140.2757  144.3217  162.0789 C.ar    1  UNL1        0.0003
     26 C         141.4516  143.4829  162.4831 C.ar    1  UNL1       -0.0012
     27 C         141.6606  143.1300  163.9260 C.ar    1  UNL1        0.0124
     28 C         142.8365  142.2912  164.3303 C.3     1  UNL1        0.0342
     29 C         140.6935  143.6159  164.9646 C.ar    1  UNL1        0.1391
     30 C         140.0667  144.6747  160.6360 C.2     1  UNL1        0.0109
     31 C         141.2026  145.2272  159.8270 C.2     1  UNL1        0.0780
     32 C         140.9936  145.5802  158.3841 C.1     1  UNL1        0.1011
     33 N         140.7847  145.9331  156.9413 N.1     1  UNL1       -0.1908
@<TRIPOS>BOND
     1    22    23    1
     2    23    24   ar
     3    24    25   ar
     4    25    30    1
     5    30    31    2
     6    31    32    1
     7    32    33    3
     8    25    26   ar
     9    26    27   ar
    10    27    28    1
    11    27    29   ar
    12    29    21    1
    13    21     1    1
    14     1     2   ar
    15     2     3   ar
    16     3    10    1
    17    10    12    1
    18    12    13   ar
    19    13    14   ar
    20    14    15   ar
    21    15    19    1
    22    19    20    3
    23    15    16   ar
    24    16    17    1
    25    16    18   ar
    26     3     4   ar
    27     4     5   ar
    28     5     6   ar
    29     6     7   ar
    30     7     8   ar
    31     8     9   ar
    32    29    23   ar
    33     9     1   ar
    34    18    12   ar
    35     9     5   ar
    36    10    11    1
@<TRIPOS>MOLECULE
*****
 33 36 0 0 0
SMALL
GASTEIGER

@<TRIPOS>ATOM
      1 C         141.7389  140.6013  167.4565 C.ar    1  UNL1        0.2394
      2 N         140.6167  140.1161  166.5876 N.ar    1  UNL1       -0.1779
      3 C         139.3152  139.6998  167.2062 C.ar    1  UNL1        0.2232
      4 N         139.1359  139.7688  168.6939 N.ar    1  UNL1       -0.2128
      5 C         140.2581  140.2540  169.5628 C.ar    1  UNL1        0.0952
      6 C         140.3736  140.4296  171.0480 C.ar    1  UNL1        0.0268
      7 C         141.7466  140.9545  171.3472 C.ar    1  UNL1        0.0372
      8 S         142.4796  141.1032  170.0470 S.2     1  UNL1       -0.0803
      9 C         141.5597  140.6703  168.9442 C.ar    1  UNL1        0.1008
     10 N         138.1929  139.2146  166.3371 N.pl3   1  UNL1       -0.2824
     11 H         137.3331  138.9571  166.7416 H       1  UNL1        0.1551
     12 C         138.3808  139.1216  164.8518 C.ar    1  UNL1        0.0528
     13 C         139.0099  137.9000  164.2504 C.ar    1  UNL1        0.0155
     14 C         139.1977  137.8070  162.7651 C.ar    1  UNL1        0.0138
     15 C         138.7565  138.9357  161.8813 C.ar    1  UNL1        0.0959
     16 C         138.1274  140.1574  162.4827 C.ar    1  UNL1        0.1509
     17 F         137.6861  141.2862  161.5989 F       1  UNL1       -0.2034
     18 C         137.9395  140.2504  163.9680 C.ar    1  UNL1        0.0450
     19 C         138.9443  138.8429  160.3959 C.1     1  UNL1        0.1027
     20 N         139.1321  138.7500  158.9107 N.1     1  UNL1       -0.1908
     21 O         143.0405  141.0176  166.8378 O.3     1  UNL1       -0.4362
     22 C         143.8578  138.2738  165.9411 C.3     1  UNL1        0.0342
     23 C         143.7086  139.3778  164.9366 C.ar    1  UNL1        0.0124
     24 C         143.9680  139.1098  163.4838 C.ar    1  UNL1       -0.0012
     25 C         143.8188  140.2138  162.4792 C.ar    1  UNL1        0.0003
     26 C         143.4101  141.5856  162.9275 C.ar    1  UNL1       -0.0012
     27 C         143.1507  141.8536  164.3805 C.ar    1  UNL1        0.0124
     28 C         142.7420  143.2254  164.8288 C.3     1  UNL1        0.0342
     29 C         143.2999  140.7497  165.3850 C.ar    1  UNL1        0.1391
     30 C         144.0782  139.9459  161.0262 C.2     1  UNL1        0.0109
     31 C         142.9889  139.3853  160.1608 C.2     1  UNL1        0.0780
     32 C         143.2484  139.1173  158.7079 C.1     1  UNL1        0.1011
     33 N         143.5078  138.8493  157.2550 N.1     1  UNL1       -0.1908
@<TRIPOS>BOND
     1    22    23    1
     2    23    24   ar
     3    24    25   ar
     4    25    30    1
     5    30    31    2
     6    31    32    1
     7    32    33    3
     8    25    26   ar
     9    26    27   ar
    10    27    28    1
    11    27    29   ar
    12    29    21    1
    13    21     1    1
    14     1     2   ar
    15     2     3   ar
    16     3    10    1
    17    10    12    1
    18    12    13   ar
    19    13    14   ar
    20    14    15   ar
    21    15    19    1
    22    19    20    3
    23    15    16   ar
    24    16    17    1
    25    16    18   ar
    26     3     4   ar
    27     4     5   ar
    28     5     6   ar
    29     6     7   ar
    30     7     8   ar
    31     8     9   ar
    32    29    23   ar
    33     9     1   ar
    34    18    12   ar
    35     9     5   ar
    36    10    11    1
@<TRIPOS>MOLECULE
*****
 33 36 0 0 0
SMALL
GASTEIGER

@<TRIPOS>ATOM
      1 C         141.3650  138.5431  160.7468 C.ar    1  UNL1        0.2394
      2 N         140.1156  139.1582  161.3041 N.ar    1  UNL1       -0.1779
      3 C         139.0305  139.6220  160.3783 C.ar    1  UNL1        0.2232
      4 N         139.1947  139.4708  158.8949 N.ar    1  UNL1       -0.2128
      5 C         140.4441  138.8557  158.3376 C.ar    1  UNL1        0.0952
      6 C         140.8850  138.5783  156.9309 C.ar    1  UNL1        0.0268
      7 C         142.2426  137.9430  156.9875 C.ar    1  UNL1        0.0372
      8 S         142.6408  137.8278  158.4291 S.2     1  UNL1       -0.0803
      9 C         141.5293  138.3919  159.2635 C.ar    1  UNL1        0.1008
     10 N         137.7811  140.2371  160.9357 N.pl3   1  UNL1       -0.2824
     11 H         136.9002  139.9500  160.6028 H       1  UNL1        0.1551
     12 C         137.8738  141.2897  162.0004 C.ar    1  UNL1        0.0528
     13 C         137.7147  140.9129  163.4435 C.ar    1  UNL1        0.0155
     14 C         137.8074  141.9655  164.5081 C.ar    1  UNL1        0.0138
     15 C         138.0593  143.3950  164.1296 C.ar    1  UNL1        0.0959
     16 C         138.2184  143.7718  162.6865 C.ar    1  UNL1        0.1509
     17 F         138.4703  145.2012  162.3078 F       1  UNL1       -0.2034
     18 C         138.1257  142.7192  161.6218 C.ar    1  UNL1        0.0450
     19 C         138.1521  144.4477  165.1942 C.1     1  UNL1        0.1027
     20 N         138.2448  145.5003  166.2586 N.1     1  UNL1       -0.1908
     21 O         142.4501  138.0792  161.6727 O.3     1  UNL1       -0.4362
     22 C         140.8658  136.8748  163.9176 C.3     1  UNL1        0.0342
     23 C         141.7604  138.0504  164.1774 C.ar    1  UNL1        0.0124
     24 C         141.8629  138.6239  165.5596 C.ar    1  UNL1       -0.0012
     25 C         142.7576  139.7997  165.8194 C.ar    1  UNL1        0.0003
     26 C         143.5497  140.4018  164.6970 C.ar    1  UNL1       -0.0012
     27 C         143.4472  139.8283  163.3147 C.ar    1  UNL1        0.0124
     28 C         144.2393  140.4305  162.1923 C.3     1  UNL1        0.0342
     29 C         142.5526  138.6527  163.0549 C.ar    1  UNL1        0.1391
     30 C         142.8600  140.3731  167.2017 C.2     1  UNL1        0.0109
     31 C         142.8895  141.8601  167.3965 C.2     1  UNL1        0.0780
     32 C         142.9920  142.4335  168.7788 C.1     1  UNL1        0.1011
     33 N         143.0944  143.0070  170.1610 N.1     1  UNL1       -0.1908
@<TRIPOS>BOND
     1    22    23    1
     2    23    24   ar
     3    24    25   ar
     4    25    30    1
     5    30    31    2
     6    31    32    1
     7    32    33    3
     8    25    26   ar
     9    26    27   ar
    10    27    28    1
    11    27    29   ar
    12    29    21    1
    13    21     1    1
    14     1     2   ar
    15     2     3   ar
    16     3    10    1
    17    10    12    1
    18    12    13   ar
    19    13    14   ar
    20    14    15   ar
    21    15    19    1
    22    19    20    3
    23    15    16   ar
    24    16    17    1
    25    16    18   ar
    26     3     4   ar
    27     4     5   ar
    28     5     6   ar
    29     6     7   ar
    30     7     8   ar
    31     8     9   ar
    32    29    23   ar
    33     9     1   ar
    34    18    12   ar
    35     9     5   ar
    36    10    11    1
@<TRIPOS>MOLECULE
*****
 33 36 0 0 0
SMALL
GASTEIGER

@<TRIPOS>ATOM
      1 C         141.4389  144.2689  160.2982 C.ar    1  UNL1        0.2394
      2 N         142.5487  143.3588  160.7343 N.ar    1  UNL1       -0.1779
      3 C         143.6194  142.9623  159.7616 C.ar    1  UNL1        0.2232
      4 N         143.5806  143.4759  158.3528 N.ar    1  UNL1       -0.2128
      5 C         142.4708  144.3860  157.9167 C.ar    1  UNL1        0.0952
      6 C         142.1711  145.0453  156.6031 C.ar    1  UNL1        0.0268
      7 C         140.9150  145.8492  156.7640 C.ar    1  UNL1        0.0372
      8 S         140.4384  145.6868  158.1770 S.2     1  UNL1       -0.0803
      9 C         141.4000  144.7825  158.8894 C.ar    1  UNL1        0.1008
     10 N         144.7292  142.0521  160.1977 N.pl3   1  UNL1       -0.2824
     11 H         145.5440  141.9723  159.6509 H       1  UNL1        0.1551
     12 C         144.5975  141.2636  161.4669 C.ar    1  UNL1        0.0528
     13 C         145.1893  141.7890  162.7412 C.ar    1  UNL1        0.0155
     14 C         145.0576  141.0005  164.0104 C.ar    1  UNL1        0.0138
     15 C         144.3341  139.6865  164.0054 C.ar    1  UNL1        0.0959
     16 C         143.7423  139.1611  162.7311 C.ar    1  UNL1        0.1509
     17 F         143.0188  137.8471  162.7260 F       1  UNL1       -0.2034
     18 C         143.8740  139.9496  161.4619 C.ar    1  UNL1        0.0450
     19 C         144.2023  138.8979  165.2746 C.1     1  UNL1        0.1027
     20 N         144.0705  138.1094  166.5436 N.1     1  UNL1       -0.1908
     21 O         140.3681  144.6654  161.2709 O.3     1  UNL1       -0.4362
     22 C         141.6294  144.9966  163.9727 C.3     1  UNL1        0.0342
     23 C         140.6243  143.9072  163.7426 C.ar    1  UNL1        0.0124
     24 C         140.2498  142.9834  164.8635 C.ar    1  UNL1       -0.0012
     25 C         139.2446  141.8940  164.6334 C.ar    1  UNL1        0.0003
     26 C         138.6140  141.7284  163.2826 C.ar    1  UNL1       -0.0012
     27 C         138.9885  142.6522  162.1617 C.ar    1  UNL1        0.0124
     28 C         138.3579  142.4866  160.8109 C.3     1  UNL1        0.0342
     29 C         139.9936  143.7416  162.3918 C.ar    1  UNL1        0.1391
     30 C         138.8701  140.9702  165.7544 C.2     1  UNL1        0.0109
     31 C         138.1238  139.7020  165.4635 C.2     1  UNL1        0.0780
     32 C         137.7493  138.7782  166.5844 C.1     1  UNL1        0.1011
     33 N         137.3748  137.8544  167.7053 N.1     1  UNL1       -0.1908
@<TRIPOS>BOND
     1    22    23    1
     2    23    24   ar
     3    24    25   ar
     4    25    30    1
     5    30    31    2
     6    31    32    1
     7    32    33    3
     8    25    26   ar
     9    26    27   ar
    10    27    28    1
    11    27    29   ar
    12    29    21    1
    13    21     1    1
    14     1     2   ar
    15     2     3   ar
    16     3    10    1
    17    10    12    1
    18    12    13   ar
    19    13    14   ar
    20    14    15   ar
    21    15    19    1
    22    19    20    3
    23    15    16   ar
    24    16    17    1
    25    16    18   ar
    26     3     4   ar
    27     4     5   ar
    28     5     6   ar
    29     6     7   ar
    30     7     8   ar
    31     8     9   ar
    32    29    23   ar
    33     9     1   ar
    34    18    12   ar
    35     9     5   ar
    36    10    11    1
@<TRIPOS>MOLECULE
*****
 33 36 0 0 0
SMALL
GASTEIGER

@<TRIPOS>ATOM
      1 C         143.5285  141.4408  160.9081 C.ar    1  UNL1        0.2394
      2 N         142.9105  140.1990  161.4792 N.ar    1  UNL1       -0.1779
      3 C         142.7933  138.9638  160.6364 C.ar    1  UNL1        0.2232
      4 N         143.2940  138.9702  159.2224 N.ar    1  UNL1       -0.2128
      5 C         143.9120  140.2120  158.6513 C.ar    1  UNL1        0.0952
      6 C         144.4900  140.5156  157.3008 C.ar    1  UNL1        0.0268
      7 C         144.9644  141.9386  157.3091 C.ar    1  UNL1        0.0372
      8 S         144.6797  142.5144  158.6646 S.2     1  UNL1       -0.0803
      9 C         144.0292  141.4473  159.4941 C.ar    1  UNL1        0.1008
     10 N         142.1753  137.7220  161.2076 N.pl3   1  UNL1       -0.2824
     11 H         142.3850  136.8432  160.8165 H       1  UNL1        0.1551
     12 C         141.2378  137.8193  162.3745 C.ar    1  UNL1        0.0528
     13 C         139.7661  137.6103  162.1737 C.ar    1  UNL1        0.0155
     14 C         138.8287  137.7076  163.3406 C.ar    1  UNL1        0.0138
     15 C         139.3629  138.0138  164.7084 C.ar    1  UNL1        0.0959
     16 C         140.8347  138.2228  164.9092 C.ar    1  UNL1        0.1509
     17 F         141.3691  138.5291  166.2769 F       1  UNL1       -0.2034
     18 C         141.7721  138.1255  163.7422 C.ar    1  UNL1        0.0450
     19 C         138.4255  138.1111  165.8754 C.1     1  UNL1        0.1027
     20 N         137.4882  138.2084  167.0423 N.1     1  UNL1       -0.1908
     21 O         143.6457  142.6761  161.7509 O.3     1  UNL1       -0.4362
     22 C         140.8483  143.4660  162.4927 C.3     1  UNL1        0.0342
     23 C         141.8156  143.0427  163.5581 C.ar    1  UNL1        0.0124
     24 C         141.3842  143.0144  164.9944 C.ar    1  UNL1       -0.0012
     25 C         142.3516  142.5910  166.0599 C.ar    1  UNL1        0.0003
     26 C         143.7502  142.1961  165.6890 C.ar    1  UNL1       -0.0012
     27 C         144.1817  142.2244  164.2526 C.ar    1  UNL1        0.0124
     28 C         145.5803  141.8295  163.8817 C.3     1  UNL1        0.0342
     29 C         143.2143  142.6477  163.1872 C.ar    1  UNL1        0.1391
     30 C         141.9201  142.5627  167.4963 C.2     1  UNL1        0.0109
     31 C         140.5797  142.0000  167.8657 C.2     1  UNL1        0.0780
     32 C         140.1482  141.9717  169.3021 C.1     1  UNL1        0.1011
     33 N         139.7167  141.9433  170.7384 N.1     1  UNL1       -0.1908
@<TRIPOS>BOND
     1    22    23    1
     2    23    24   ar
     3    24    25   ar
     4    25    30    1
     5    30    31    2
     6    31    32    1
     7    32    33    3
     8    25    26   ar
     9    26    27   ar
    10    27    28    1
    11    27    29   ar
    12    29    21    1
    13    21     1    1
    14     1     2   ar
    15     2     3   ar
    16     3    10    1
    17    10    12    1
    18    12    13   ar
    19    13    14   ar
    20    14    15   ar
    21    15    19    1
    22    19    20    3
    23    15    16   ar
    24    16    17    1
    25    16    18   ar
    26     3     4   ar
    27     4     5   ar
    28     5     6   ar
    29     6     7   ar
    30     7     8   ar
    31     8     9   ar
    32    29    23   ar
    33     9     1   ar
    34    18    12   ar
    35     9     5   ar
    36    10    11    1
@<TRIPOS>MOLECULE
*****
 33 36 0 0 0
SMALL
GASTEIGER

@<TRIPOS>ATOM
      1 C         142.1763  144.0954  159.9807 C.ar    1  UNL1        0.2394
      2 N         141.3794  144.1393  161.2508 N.ar    1  UNL1       -0.1779
      3 C         140.0802  144.8876  161.2955 C.ar    1  UNL1        0.2232
      4 N         139.5778  145.5920  160.0701 N.ar    1  UNL1       -0.2128
      5 C         140.3747  145.5481  158.8001 C.ar    1  UNL1        0.0952
      6 C         140.1349  146.1421  157.4437 C.ar    1  UNL1        0.0268
      7 C         141.2860  145.7608  156.5608 C.ar    1  UNL1        0.0372
      8 S         142.2372  144.9313  157.3714 S.2     1  UNL1       -0.0803
      9 C         141.6740  144.7998  158.7554 C.ar    1  UNL1        0.1008
     10 N         139.2833  144.9315  162.5656 N.pl3   1  UNL1       -0.2824
     11 H         138.9533  145.7926  162.9101 H       1  UNL1        0.1551
     12 C         138.9892  143.6632  163.3107 C.ar    1  UNL1        0.0528
     13 C         138.0175  142.6697  162.7461 C.ar    1  UNL1        0.0155
     14 C         137.7235  141.4015  163.4912 C.ar    1  UNL1        0.0138
     15 C         138.4011  141.1268  164.8009 C.ar    1  UNL1        0.0959
     16 C         139.3728  142.1203  165.3655 C.ar    1  UNL1        0.1509
     17 F         140.0505  141.8456  166.6752 F       1  UNL1       -0.2034
     18 C         139.6668  143.3885  164.6204 C.ar    1  UNL1        0.0450
     19 C         138.1071  139.8586  165.5460 C.1     1  UNL1        0.1027
     20 N         137.8132  138.5904  166.2911 N.1     1  UNL1       -0.1908
     21 O         143.4756  143.3471  159.9360 O.3     1  UNL1       -0.4362
     22 C         144.4156  144.3261  162.6115 C.3     1  UNL1        0.0342
     23 C         144.2828  142.8540  162.3558 C.ar    1  UNL1        0.0124
     24 C         144.6199  141.8714  163.4378 C.ar    1  UNL1       -0.0012
     25 C         144.4871  140.3992  163.1820 C.ar    1  UNL1        0.0003
     26 C         144.0171  139.9098  161.8444 C.ar    1  UNL1       -0.0012
     27 C         143.6799  140.8925  160.7623 C.ar    1  UNL1        0.0124
     28 C         143.2100  140.4030  159.4246 C.3     1  UNL1        0.0342
     29 C         143.8128  142.3645  161.0180 C.ar    1  UNL1        0.1391
     30 C         144.8243  139.4166  164.2641 C.2     1  UNL1        0.0109
     31 C         143.7889  139.0354  165.2802 C.2     1  UNL1        0.0780
     32 C         144.1261  138.0528  166.3623 C.1     1  UNL1        0.1011
     33 N         144.4632  137.0702  167.4444 N.1     1  UNL1       -0.1908
@<TRIPOS>BOND
     1    22    23    1
     2    23    24   ar
     3    24    25   ar
     4    25    30    1
     5    30    31    2
     6    31    32    1
     7    32    33    3
     8    25    26   ar
     9    26    27   ar
    10    27    28    1
    11    27    29   ar
    12    29    21    1
    13    21     1    1
    14     1     2   ar
    15     2     3   ar
    16     3    10    1
    17    10    12    1
    18    12    13   ar
    19    13    14   ar
    20    14    15   ar
    21    15    19    1
    22    19    20    3
    23    15    16   ar
    24    16    17    1
    25    16    18   ar
    26     3     4   ar
    27     4     5   ar
    28     5     6   ar
    29     6     7   ar
    30     7     8   ar
    31     8     9   ar
    32    29    23   ar
    33     9     1   ar
    34    18    12   ar
    35     9     5   ar
    36    10    11    1
@<TRIPOS>MOLECULE
*****
 33 36 0 0 0
SMALL
GASTEIGER

@<TRIPOS>ATOM
      1 C         141.1665  143.9404  160.3345 C.ar    1  UNL1        0.2394
      2 N         140.1966  142.8860  160.7787 N.ar    1  UNL1       -0.1779
      3 C         139.0953  142.4454  159.8606 C.ar    1  UNL1        0.2232
      4 N         138.9639  143.0592  158.4982 N.ar    1  UNL1       -0.2128
      5 C         139.9339  144.1136  158.0541 C.ar    1  UNL1        0.0952
      6 C         140.0540  144.8935  156.7784 C.ar    1  UNL1        0.0268
      7 C         141.2296  145.8161  156.9081 C.ar    1  UNL1        0.0372
      8 S         141.8360  145.6064  158.2640 S.2     1  UNL1       -0.0803
      9 C         141.0352  144.5542  158.9722 C.ar    1  UNL1        0.1008
     10 N         138.1253  141.3909  160.3049 N.pl3   1  UNL1       -0.2824
     11 H         137.4729  141.0218  159.6665 H       1  UNL1        0.1551
     12 C         138.1492  140.8988  161.7217 C.ar    1  UNL1        0.0528
     13 C         137.8072  141.8315  162.8455 C.ar    1  UNL1        0.0155
     14 C         137.8312  141.3394  164.2623 C.ar    1  UNL1        0.0138
     15 C         138.1971  139.9146  164.5552 C.ar    1  UNL1        0.0959
     16 C         138.5392  138.9819  163.4314 C.ar    1  UNL1        0.1509
     17 F         138.9052  137.5569  163.7243 F       1  UNL1       -0.2034
     18 C         138.5152  139.4740  162.0146 C.ar    1  UNL1        0.0450
     19 C         138.2211  139.4224  165.9720 C.1     1  UNL1        0.1027
     20 N         138.2451  138.9302  167.3887 N.1     1  UNL1       -0.1908
     21 O         142.2678  144.3810  161.2527 O.3     1  UNL1       -0.4362
     22 C         140.5074  145.1045  163.5717 C.3     1  UNL1        0.0342
     23 C         141.5760  144.0648  163.7369 C.ar    1  UNL1        0.0124
     24 C         141.7643  143.3869  165.0616 C.ar    1  UNL1       -0.0012
     25 C         142.8329  142.3471  165.2268 C.ar    1  UNL1        0.0003
     26 C         143.7130  141.9854  164.0674 C.ar    1  UNL1       -0.0012
     27 C         143.5247  142.6634  162.7426 C.ar    1  UNL1        0.0124
     28 C         144.4048  142.3017  161.5832 C.3     1  UNL1        0.0342
     29 C         142.4562  143.7031  162.5774 C.ar    1  UNL1        0.1391
     30 C         143.0212  141.6691  166.5516 C.2     1  UNL1        0.0109
     31 C         142.4557  140.2988  166.7799 C.2     1  UNL1        0.0780
     32 C         142.6440  139.6208  168.1047 C.1     1  UNL1        0.1011
     33 N         142.8324  138.9429  169.4294 N.1     1  UNL1       -0.1908
@<TRIPOS>BOND
     1    22    23    1
     2    23    24   ar
     3    24    25   ar
     4    25    30    1
     5    30    31    2
     6    31    32    1
     7    32    33    3
     8    25    26   ar
     9    26    27   ar
    10    27    28    1
    11    27    29   ar
    12    29    21    1
    13    21     1    1
    14     1     2   ar
    15     2     3   ar
    16     3    10    1
    17    10    12    1
    18    12    13   ar
    19    13    14   ar
    20    14    15   ar
    21    15    19    1
    22    19    20    3
    23    15    16   ar
    24    16    17    1
    25    16    18   ar
    26     3     4   ar
    27     4     5   ar
    28     5     6   ar
    29     6     7   ar
    30     7     8   ar
    31     8     9   ar
    32    29    23   ar
    33     9     1   ar
    34    18    12   ar
    35     9     5   ar
    36    10    11    1
@<TRIPOS>MOLECULE
*****
 33 36 0 0 0
SMALL
GASTEIGER

@<TRIPOS>ATOM
      1 C         142.6451  139.3991  160.7830 C.ar    1  UNL1        0.2394
      2 N         142.5266  140.8522  161.1358 N.ar    1  UNL1       -0.1779
      3 C         142.3206  141.8719  160.0553 C.ar    1  UNL1        0.2232
      4 N         142.2330  141.4387  158.6218 N.ar    1  UNL1       -0.2128
      5 C         142.3515  139.9856  158.2690 C.ar    1  UNL1        0.0952
      6 C         142.3048  139.2649  156.9543 C.ar    1  UNL1        0.0268
      7 C         142.4819  137.7997  157.2224 C.ar    1  UNL1        0.0372
      8 S         142.6382  137.6149  158.7028 S.2     1  UNL1       -0.0803
      9 C         142.5575  138.9658  159.3496 C.ar    1  UNL1        0.1008
     10 N         142.2021  143.3251  160.4081 N.pl3   1  UNL1       -0.2824
     11 H         142.6721  144.0023  159.8697 H       1  UNL1        0.1551
     12 C         141.3676  143.7465  161.5812 C.ar    1  UNL1        0.0528
     13 C         142.0257  144.3068  162.8071 C.ar    1  UNL1        0.0155
     14 C         141.1913  144.7282  163.9802 C.ar    1  UNL1        0.0138
     15 C         139.6987  144.5892  163.9273 C.ar    1  UNL1        0.0959
     16 C         139.0406  144.0289  162.7014 C.ar    1  UNL1        0.1509
     17 F         137.5479  143.8898  162.6484 F       1  UNL1       -0.2034
     18 C         139.8750  143.6075  161.5283 C.ar    1  UNL1        0.0450
     19 C         138.8641  145.0105  165.1004 C.1     1  UNL1        0.1027
     20 N         138.0296  145.4318  166.2733 N.1     1  UNL1       -0.1908
     21 O         142.8511  138.3794  161.8636 O.3     1  UNL1       -0.4362
     22 C         140.1032  137.6760  162.8405 C.3     1  UNL1        0.0342
     23 C         141.0803  138.3408  163.7643 C.ar    1  UNL1        0.0124
     24 C         140.6835  138.6539  165.1765 C.ar    1  UNL1       -0.0012
     25 C         141.6607  139.3187  166.1004 C.ar    1  UNL1        0.0003
     26 C         143.0345  139.6703  165.6119 C.ar    1  UNL1       -0.0012
     27 C         143.4314  139.3572  164.1996 C.ar    1  UNL1        0.0124
     28 C         144.8053  139.7089  163.7111 C.3     1  UNL1        0.0342
     29 C         142.4543  138.6925  163.2758 C.ar    1  UNL1        0.1391
     30 C         141.2638  139.6318  167.5127 C.2     1  UNL1        0.0109
     31 C         139.8639  140.0760  167.8173 C.2     1  UNL1        0.0780
     32 C         139.4670  140.3891  169.2296 C.1     1  UNL1        0.1011
     33 N         139.0701  140.7021  170.6419 N.1     1  UNL1       -0.1908
@<TRIPOS>BOND
     1    22    23    1
     2    23    24   ar
     3    24    25   ar
     4    25    30    1
     5    30    31    2
     6    31    32    1
     7    32    33    3
     8    25    26   ar
     9    26    27   ar
    10    27    28    1
    11    27    29   ar
    12    29    21    1
    13    21     1    1
    14     1     2   ar
    15     2     3   ar
    16     3    10    1
    17    10    12    1
    18    12    13   ar
    19    13    14   ar
    20    14    15   ar
    21    15    19    1
    22    19    20    3
    23    15    16   ar
    24    16    17    1
    25    16    18   ar
    26     3     4   ar
    27     4     5   ar
    28     5     6   ar
    29     6     7   ar
    30     7     8   ar
    31     8     9   ar
    32    29    23   ar
    33     9     1   ar
    34    18    12   ar
    35     9     5   ar
    36    10    11    1
