@<TRIPOS>MOLECULE
*****
 33 36 0 0 0
SMALL
GASTEIGER

@<TRIPOS>ATOM
      1 C         140.2535  140.5404  170.0301 C.ar    1  UNL1        0.1691
      2 N         138.8722  140.0039  170.2628 N.ar    1  UNL1       -0.1409
      3 N         138.0665  139.4813  169.1105 N.ar    1  UNL1       -0.1329
      4 C         138.6421  139.4954  167.7254 C.ar    1  UNL1        0.1515
      5 C         140.0233  140.0319  167.4927 C.ar    1  UNL1        0.0522
      6 C         140.8290  140.5545  168.6450 C.ar    1  UNL1        0.0764
      7 N         142.3555  140.4044  171.5509 N.am    1  UNL1       -0.3240
      8 C         141.0592  141.0629  171.1824 C.2     1  UNL1        0.2635
      9 O         140.5686  142.2440  171.9662 O.2     1  UNL1       -0.2686
     10 H         142.8843  140.7473  172.3072 H       1  UNL1        0.1453
     11 H         142.6775  139.6292  171.0365 H       1  UNL1        0.1453
     12 N         137.8364  138.9729  166.5731 N.pl3   1  UNL1       -0.3170
     13 H         136.8960  138.7140  166.7072 H       1  UNL1        0.1482
     14 C         138.4634  138.8448  165.2165 C.3     1  UNL1        0.0845
     15 C         139.2533  137.6181  164.8681 C.3     1  UNL1        0.0209
     16 C         139.8803  137.4900  163.5115 C.3     1  UNL1        0.0018
     17 C         139.7174  138.5886  162.5032 C.3     1  UNL1        0.0015
     18 C         138.9275  139.8152  162.8516 C.3     1  UNL1        0.0172
     19 C         138.3005  139.9433  164.2082 C.3     1  UNL1        0.0689
     20 N         137.5106  141.1700  164.5566 N.3     1  UNL1       -0.3209
     21 H         137.5033  141.8072  163.7601 H       1  UNL1        0.1189
     22 H         137.9378  141.6331  165.3587 H       1  UNL1        0.1189
     23 N         142.2103  141.0910  168.4121 N.pl3   1  UNL1       -0.2965
     24 H         142.7285  141.4594  169.1639 H       1  UNL1        0.1537
     25 C         142.8021  141.0664  167.0341 C.ar    1  UNL1        0.1318
     26 C         143.2397  139.7656  166.4289 C.ar    1  UNL1        0.0344
     27 C         143.8315  139.7410  165.0507 C.ar    1  UNL1        0.0041
     28 C         143.9856  141.0172  164.2778 C.ar    1  UNL1        0.0148
     29 C         143.5479  142.3181  164.8830 C.ar    1  UNL1        0.0600
     30 N         142.9562  142.3427  166.2611 N.ar    1  UNL1       -0.2349
     31 C         143.7020  143.5943  164.1101 C.3     1  UNL1        0.0403
     32 C         143.9414  144.3056  162.8114 C.3     1  UNL1        0.0063
     33 C         143.7295  145.0935  164.0700 C.3     1  UNL1        0.0063
@<TRIPOS>BOND
     1     7     8   am
     2     8     9    2
     3     8     1    1
     4     1     2   ar
     5     2     3   ar
     6     3     4   ar
     7     4    12    1
     8    14    12    1
     9    14    15    1
    10    15    16    1
    11    16    17    1
    12    17    18    1
    13    18    19    1
    14    19    20    1
    15     4     5   ar
    16     5     6   ar
    17     6    23    1
    18    23    25    1
    19    25    26   ar
    20    26    27   ar
    21    27    28   ar
    22    28    29   ar
    23    29    31    1
    24    31    32    1
    25    32    33    1
    26    29    30   ar
    27     6     1   ar
    28    30    25   ar
    29    19    14    1
    30    33    31    1
    31     7    10    1
    32     7    11    1
    33    12    13    1
    34    20    21    1
    35    20    22    1
    36    23    24    1
@<TRIPOS>MOLECULE
*****
 33 36 0 0 0
SMALL
GASTEIGER

@<TRIPOS>ATOM
      1 C         141.8104  140.8024  168.8788 C.ar    1  UNL1        0.1691
      2 N         140.5926  140.2963  169.5934 N.ar    1  UNL1       -0.1409
      3 N         139.4185  139.7907  168.8088 N.ar    1  UNL1       -0.1329
      4 C         139.4621  139.7912  167.3094 C.ar    1  UNL1        0.1515
      5 C         140.6799  140.2973  166.5948 C.ar    1  UNL1        0.0522
      6 C         141.8541  140.8029  167.3794 C.ar    1  UNL1        0.0764
      7 N         143.5831  140.4612  170.7472 N.am    1  UNL1       -0.3240
      8 C         142.9846  141.3080  169.6634 C.2     1  UNL1        0.2635
      9 O         143.5603  142.6604  169.3642 O.2     1  UNL1       -0.2686
     10 H         144.3537  140.7930  171.2622 H       1  UNL1        0.1453
     11 H         143.2052  139.5735  170.9436 H       1  UNL1        0.1453
     12 N         138.2879  139.2856  166.5248 N.pl3   1  UNL1       -0.3170
     13 H         137.4351  139.0992  166.9800 H       1  UNL1        0.1482
     14 C         138.4131  139.0639  165.0466 C.3     1  UNL1        0.0845
     15 C         138.9284  137.7551  164.5254 C.3     1  UNL1        0.0209
     16 C         139.0536  137.5334  163.0472 C.3     1  UNL1        0.0018
     17 C         138.6634  138.6205  162.0901 C.3     1  UNL1        0.0015
     18 C         138.1481  139.9293  162.6112 C.3     1  UNL1        0.0172
     19 C         138.0229  140.1510  164.0895 C.3     1  UNL1        0.0689
     20 N         137.5076  141.4597  164.6106 N.3     1  UNL1       -0.3209
     21 H         137.2927  142.0767  163.8273 H       1  UNL1        0.1189
     22 H         138.2173  141.8939  165.2006 H       1  UNL1        0.1189
     23 N         143.0719  141.3089  166.6647 N.pl3   1  UNL1       -0.2965
     24 H         143.9380  140.8572  166.7875 H       1  UNL1        0.1537
     25 C         142.9701  142.5032  165.7628 C.ar    1  UNL1        0.1318
     26 C         144.2085  143.2503  165.3649 C.ar    1  UNL1        0.0344
     27 C         144.1066  144.4446  164.4630 C.ar    1  UNL1        0.0041
     28 C         142.7665  144.8918  163.9591 C.ar    1  UNL1        0.0148
     29 C         141.5281  144.1447  164.3571 C.ar    1  UNL1        0.0600
     30 N         141.6299  142.9505  165.2589 N.ar    1  UNL1       -0.2349
     31 C         140.1880  144.5919  163.8532 C.3     1  UNL1        0.0403
     32 C         139.3414  145.1913  162.7696 C.3     1  UNL1        0.0063
     33 C         138.7132  144.7671  164.0640 C.3     1  UNL1        0.0063
@<TRIPOS>BOND
     1     7     8   am
     2     8     9    2
     3     8     1    1
     4     1     2   ar
     5     2     3   ar
     6     3     4   ar
     7     4    12    1
     8    14    12    1
     9    14    15    1
    10    15    16    1
    11    16    17    1
    12    17    18    1
    13    18    19    1
    14    19    20    1
    15     4     5   ar
    16     5     6   ar
    17     6    23    1
    18    23    25    1
    19    25    26   ar
    20    26    27   ar
    21    27    28   ar
    22    28    29   ar
    23    29    31    1
    24    31    32    1
    25    32    33    1
    26    29    30   ar
    27     6     1   ar
    28    30    25   ar
    29    19    14    1
    30    33    31    1
    31     7    10    1
    32     7    11    1
    33    12    13    1
    34    20    21    1
    35    20    22    1
    36    23    24    1
@<TRIPOS>MOLECULE
*****
 33 36 0 0 0
SMALL
GASTEIGER

@<TRIPOS>ATOM
      1 C         138.2703  140.4036  164.4735 C.ar    1  UNL1        0.1691
      2 N         138.0283  139.1352  165.2368 N.ar    1  UNL1       -0.1409
      3 N         138.6026  138.9663  166.6122 N.ar    1  UNL1       -0.1329
      4 C         139.4189  140.0658  167.2243 C.ar    1  UNL1        0.1515
      5 C         139.6609  141.3342  166.4610 C.ar    1  UNL1        0.0522
      6 C         139.0866  141.5031  165.0857 C.ar    1  UNL1        0.0764
      7 N         137.6436  139.4043  162.1587 N.am    1  UNL1       -0.3240
      8 C         137.6960  140.5724  163.0982 C.2     1  UNL1        0.2635
      9 O         137.1741  141.9094  162.6623 O.2     1  UNL1       -0.2686
     10 H         137.2667  139.5152  161.2560 H       1  UNL1        0.1453
     11 H         137.9862  138.5268  162.4447 H       1  UNL1        0.1453
     12 N         139.9932  139.8970  168.5997 N.pl3   1  UNL1       -0.3170
     13 H         139.7384  139.1196  169.1475 H       1  UNL1        0.1482
     14 C         140.9556  140.9125  169.1405 C.3     1  UNL1        0.0845
     15 C         140.4558  142.2515  169.5959 C.3     1  UNL1        0.0209
     16 C         141.4182  143.2670  170.1366 C.3     1  UNL1        0.0018
     17 C         142.8804  142.9436  170.2221 C.3     1  UNL1        0.0015
     18 C         143.3802  141.6046  169.7668 C.3     1  UNL1        0.0172
     19 C         142.4178  140.5890  169.2259 C.3     1  UNL1        0.0689
     20 N         142.9176  139.2501  168.7706 N.3     1  UNL1       -0.3209
     21 H         143.9284  139.2028  168.8992 H       1  UNL1        0.1189
     22 H         142.6940  139.1214  167.7838 H       1  UNL1        0.1189
     23 N         139.3286  142.7715  164.3224 N.pl3   1  UNL1       -0.2965
     24 H         138.5696  143.2679  163.9392 H       1  UNL1        0.1537
     25 C         140.7270  143.2837  164.1430 C.ar    1  UNL1        0.1318
     26 C         140.9754  144.7575  164.0156 C.ar    1  UNL1        0.0344
     27 C         142.3738  145.2696  163.8362 C.ar    1  UNL1        0.0041
     28 C         143.5238  144.3080  163.7841 C.ar    1  UNL1        0.0148
     29 C         143.2754  142.8342  163.9114 C.ar    1  UNL1        0.0600
     30 N         141.8770  142.3220  164.0908 N.ar    1  UNL1       -0.2349
     31 C         144.4253  141.8725  163.8593 C.3     1  UNL1        0.0403
     32 C         144.9558  140.4743  163.9756 C.3     1  UNL1        0.0063
     33 C         145.8868  141.6051  163.6528 C.3     1  UNL1        0.0063
@<TRIPOS>BOND
     1     7     8   am
     2     8     9    2
     3     8     1    1
     4     1     2   ar
     5     2     3   ar
     6     3     4   ar
     7     4    12    1
     8    14    12    1
     9    14    15    1
    10    15    16    1
    11    16    17    1
    12    17    18    1
    13    18    19    1
    14    19    20    1
    15     4     5   ar
    16     5     6   ar
    17     6    23    1
    18    23    25    1
    19    25    26   ar
    20    26    27   ar
    21    27    28   ar
    22    28    29   ar
    23    29    31    1
    24    31    32    1
    25    32    33    1
    26    29    30   ar
    27     6     1   ar
    28    30    25   ar
    29    19    14    1
    30    33    31    1
    31     7    10    1
    32     7    11    1
    33    12    13    1
    34    20    21    1
    35    20    22    1
    36    23    24    1
@<TRIPOS>MOLECULE
*****
 33 36 0 0 0
SMALL
GASTEIGER

@<TRIPOS>ATOM
      1 C         140.4496  140.4065  170.0163 C.ar    1  UNL1        0.1691
      2 N         139.0199  140.0209  170.2557 N.ar    1  UNL1       -0.1409
      3 N         138.1718  139.5401  169.1158 N.ar    1  UNL1       -0.1329
      4 C         138.7533  139.4449  167.7364 C.ar    1  UNL1        0.1515
      5 C         140.1830  139.8306  167.4970 C.ar    1  UNL1        0.0522
      6 C         141.0311  140.3114  168.6370 C.ar    1  UNL1        0.0764
      7 N         142.5959  140.2027  171.4661 N.am    1  UNL1       -0.3240
      8 C         141.2977  140.8873  171.1563 C.2     1  UNL1        0.2635
      9 O         140.8476  142.0527  171.9865 O.2     1  UNL1       -0.2686
     10 H         143.1525  140.5183  172.2143 H       1  UNL1        0.1453
     11 H         142.8913  139.4378  170.9212 H       1  UNL1        0.1453
     12 N         137.9052  138.9642  166.5964 N.pl3   1  UNL1       -0.3170
     13 H         136.9649  138.7175  166.7523 H       1  UNL1        0.1482
     14 C         138.4897  138.8592  165.2190 C.3     1  UNL1        0.0845
     15 C         139.1824  137.5989  164.7922 C.3     1  UNL1        0.0209
     16 C         139.7668  137.4939  163.4148 C.3     1  UNL1        0.0018
     17 C         139.6586  138.6491  162.4641 C.3     1  UNL1        0.0015
     18 C         138.9660  139.9093  162.8908 C.3     1  UNL1        0.0172
     19 C         138.3815  140.0144  164.2683 C.3     1  UNL1        0.0689
     20 N         137.6889  141.2745  164.6950 N.3     1  UNL1       -0.3209
     21 H         137.7082  141.9489  163.9300 H       1  UNL1        0.1189
     22 H         138.1665  141.6670  165.5064 H       1  UNL1        0.1189
     23 N         142.4608  140.6971  168.3975 N.pl3   1  UNL1       -0.2965
     24 H         143.1167  140.6343  169.1290 H       1  UNL1        0.1537
     25 C         142.8911  141.1783  167.0435 C.ar    1  UNL1        0.1318
     26 C         143.2690  142.6161  166.8438 C.ar    1  UNL1        0.0344
     27 C         143.6993  143.0974  165.4898 C.ar    1  UNL1        0.0041
     28 C         143.7517  142.1408  164.3356 C.ar    1  UNL1        0.0148
     29 C         143.3738  140.7030  164.5353 C.ar    1  UNL1        0.0600
     30 N         142.9435  140.2217  165.8893 N.ar    1  UNL1       -0.2349
     31 C         143.4262  139.7465  163.3811 C.3     1  UNL1        0.0403
     32 C         143.6349  139.4852  161.9189 C.3     1  UNL1        0.0063
     33 C         143.3083  138.3508  162.8442 C.3     1  UNL1        0.0063
@<TRIPOS>BOND
     1     7     8   am
     2     8     9    2
     3     8     1    1
     4     1     2   ar
     5     2     3   ar
     6     3     4   ar
     7     4    12    1
     8    14    12    1
     9    14    15    1
    10    15    16    1
    11    16    17    1
    12    17    18    1
    13    18    19    1
    14    19    20    1
    15     4     5   ar
    16     5     6   ar
    17     6    23    1
    18    23    25    1
    19    25    26   ar
    20    26    27   ar
    21    27    28   ar
    22    28    29   ar
    23    29    31    1
    24    31    32    1
    25    32    33    1
    26    29    30   ar
    27     6     1   ar
    28    30    25   ar
    29    19    14    1
    30    33    31    1
    31     7    10    1
    32     7    11    1
    33    12    13    1
    34    20    21    1
    35    20    22    1
    36    23    24    1
@<TRIPOS>MOLECULE
*****
 33 36 0 0 0
SMALL
GASTEIGER

@<TRIPOS>ATOM
      1 C         139.4368  144.3844  161.4823 C.ar    1  UNL1        0.1691
      2 N         138.5435  143.5610  160.6025 N.ar    1  UNL1       -0.1409
      3 N         137.7886  142.3993  161.1776 N.ar    1  UNL1       -0.1329
      4 C         137.9270  142.0611  162.6323 C.ar    1  UNL1        0.1515
      5 C         138.8203  142.8845  163.5121 C.ar    1  UNL1        0.0522
      6 C         139.5752  144.0461  162.9370 C.ar    1  UNL1        0.0764
      7 N         141.6335  145.3882  160.5248 N.am    1  UNL1       -0.3240
      8 C         140.1917  145.5460  160.9073 C.2     1  UNL1        0.2635
      9 O         139.5049  146.8655  160.7147 O.2     1  UNL1       -0.2686
     10 H         142.1290  146.1507  160.1474 H       1  UNL1        0.1453
     11 H         142.0843  144.5222  160.6511 H       1  UNL1        0.1453
     12 N         137.1721  140.8994  163.2073 N.pl3   1  UNL1       -0.3170
     13 H         136.1886  140.8825  163.1662 H       1  UNL1        0.1482
     14 C         137.9156  139.7635  163.8451 C.3     1  UNL1        0.0845
     15 C         138.1489  139.7577  165.3269 C.3     1  UNL1        0.0209
     16 C         138.8925  138.6218  165.9646 C.3     1  UNL1        0.0018
     17 C         139.4027  137.4915  165.1206 C.3     1  UNL1        0.0015
     18 C         139.1693  137.4972  163.6389 C.3     1  UNL1        0.0172
     19 C         138.4258  138.6332  163.0011 C.3     1  UNL1        0.0689
     20 N         138.1924  138.6389  161.5194 N.3     1  UNL1       -0.3209
     21 H         138.6036  137.8014  161.1073 H       1  UNL1        0.1189
     22 H         138.6254  139.4669  161.1102 H       1  UNL1        0.1189
     23 N         140.4685  144.8695  163.8169 N.pl3   1  UNL1       -0.2965
     24 H         140.2488  145.8122  163.9970 H       1  UNL1        0.1537
     25 C         141.6965  144.2568  164.4222 C.ar    1  UNL1        0.1318
     26 C         143.0513  144.8091  164.0915 C.ar    1  UNL1        0.0344
     27 C         144.2793  144.1962  164.6969 C.ar    1  UNL1        0.0041
     28 C         144.1525  143.0311  165.6330 C.ar    1  UNL1        0.0148
     29 C         142.7977  142.4788  165.9638 C.ar    1  UNL1        0.0600
     30 N         141.5697  143.0916  165.3584 N.ar    1  UNL1       -0.2349
     31 C         142.6708  141.3137  166.8999 C.3     1  UNL1        0.0403
     32 C         142.7774  139.8408  167.1626 C.3     1  UNL1        0.0063
     33 C         142.3445  140.7686  168.2588 C.3     1  UNL1        0.0063
@<TRIPOS>BOND
     1     7     8   am
     2     8     9    2
     3     8     1    1
     4     1     2   ar
     5     2     3   ar
     6     3     4   ar
     7     4    12    1
     8    14    12    1
     9    14    15    1
    10    15    16    1
    11    16    17    1
    12    17    18    1
    13    18    19    1
    14    19    20    1
    15     4     5   ar
    16     5     6   ar
    17     6    23    1
    18    23    25    1
    19    25    26   ar
    20    26    27   ar
    21    27    28   ar
    22    28    29   ar
    23    29    31    1
    24    31    32    1
    25    32    33    1
    26    29    30   ar
    27     6     1   ar
    28    30    25   ar
    29    19    14    1
    30    33    31    1
    31     7    10    1
    32     7    11    1
    33    12    13    1
    34    20    21    1
    35    20    22    1
    36    23    24    1
@<TRIPOS>MOLECULE
*****
 33 36 0 0 0
SMALL
GASTEIGER

@<TRIPOS>ATOM
      1 C         139.3353  139.8242  168.0373 C.ar    1  UNL1        0.1691
      2 N         138.0953  139.0064  167.8283 N.ar    1  UNL1       -0.1409
      3 N         137.9042  138.2476  166.5486 N.ar    1  UNL1       -0.1329
      4 C         138.9531  138.3066  165.4779 C.ar    1  UNL1        0.1515
      5 C         140.1930  139.1243  165.6869 C.ar    1  UNL1        0.0522
      6 C         140.3841  139.8832  166.9666 C.ar    1  UNL1        0.0764
      7 N         139.2797  139.9076  170.6334 N.am    1  UNL1       -0.3240
      8 C         139.5263  140.5830  169.3170 C.2     1  UNL1        0.2635
      9 O         139.9640  142.0172  169.2803 O.2     1  UNL1       -0.2686
     10 H         139.4052  140.4057  171.4734 H       1  UNL1        0.1453
     11 H         138.9925  138.9663  170.6575 H       1  UNL1        0.1453
     12 N         138.7620  137.5477  164.1982 N.pl3   1  UNL1       -0.3170
     13 H         138.4581  136.6116  164.2217 H       1  UNL1        0.1482
     14 C         139.0339  138.2152  162.8827 C.3     1  UNL1        0.0845
     15 C         138.0375  139.1799  162.3110 C.3     1  UNL1        0.0209
     16 C         138.3094  139.8473  160.9955 C.3     1  UNL1        0.0018
     17 C         139.5776  139.5502  160.2517 C.3     1  UNL1        0.0015
     18 C         140.5740  138.5856  160.8233 C.3     1  UNL1        0.0172
     19 C         140.3021  137.9180  162.1388 C.3     1  UNL1        0.0689
     20 N         141.2984  136.9534  162.7105 N.3     1  UNL1       -0.3209
     21 H         142.0943  136.8719  162.0778 H       1  UNL1        0.1189
     22 H         140.8600  136.0396  162.8248 H       1  UNL1        0.1189
     23 N         141.6241  140.7010  167.1756 N.pl3   1  UNL1       -0.2965
     24 H         142.2118  140.5165  167.9437 H       1  UNL1        0.1537
     25 C         141.9687  141.7998  166.2145 C.ar    1  UNL1        0.1318
     26 C         143.4045  142.1551  165.9650 C.ar    1  UNL1        0.0344
     27 C         143.7490  143.2540  165.0038 C.ar    1  UNL1        0.0041
     28 C         142.6578  143.9975  164.2922 C.ar    1  UNL1        0.0148
     29 C         141.2220  143.6421  164.5417 C.ar    1  UNL1        0.0600
     30 N         140.8775  142.5433  165.5028 N.ar    1  UNL1       -0.2349
     31 C         140.1308  144.3856  163.8300 C.3     1  UNL1        0.0403
     32 C         138.6753  144.7038  163.6562 C.3     1  UNL1        0.0063
     33 C         139.6963  145.3552  162.7712 C.3     1  UNL1        0.0063
@<TRIPOS>BOND
     1     7     8   am
     2     8     9    2
     3     8     1    1
     4     1     2   ar
     5     2     3   ar
     6     3     4   ar
     7     4    12    1
     8    14    12    1
     9    14    15    1
    10    15    16    1
    11    16    17    1
    12    17    18    1
    13    18    19    1
    14    19    20    1
    15     4     5   ar
    16     5     6   ar
    17     6    23    1
    18    23    25    1
    19    25    26   ar
    20    26    27   ar
    21    27    28   ar
    22    28    29   ar
    23    29    31    1
    24    31    32    1
    25    32    33    1
    26    29    30   ar
    27     6     1   ar
    28    30    25   ar
    29    19    14    1
    30    33    31    1
    31     7    10    1
    32     7    11    1
    33    12    13    1
    34    20    21    1
    35    20    22    1
    36    23    24    1
@<TRIPOS>MOLECULE
*****
 33 36 0 0 0
SMALL
GASTEIGER

@<TRIPOS>ATOM
      1 C         139.3622  139.0493  164.3011 C.ar    1  UNL1        0.1691
      2 N         138.1608  139.1999  165.1866 N.ar    1  UNL1       -0.1409
      3 N         138.3379  139.4388  166.6568 N.ar    1  UNL1       -0.1329
      4 C         139.7163  139.5271  167.2416 C.ar    1  UNL1        0.1515
      5 C         140.9177  139.3765  166.3562 C.ar    1  UNL1        0.0522
      6 C         140.7406  139.1376  164.8860 C.ar    1  UNL1        0.0764
      7 N         138.4063  137.6210  162.3528 N.am    1  UNL1       -0.3240
      8 C         139.1851  138.8104  162.8309 C.2     1  UNL1        0.2635
      9 O         139.7868  139.7610  161.8388 O.2     1  UNL1       -0.2686
     10 H         138.2901  137.4642  161.3878 H       1  UNL1        0.1453
     11 H         138.0114  136.9971  163.0040 H       1  UNL1        0.1453
     12 N         139.8934  139.7660  168.7118 N.pl3   1  UNL1       -0.3170
     13 H         139.3946  139.2211  169.3627 H       1  UNL1        0.1482
     14 C         140.8304  140.8350  169.1905 C.3     1  UNL1        0.0845
     15 C         140.3543  142.2528  169.3064 C.3     1  UNL1        0.0209
     16 C         141.2913  143.3218  169.7851 C.3     1  UNL1        0.0018
     17 C         142.7044  142.9732  170.1477 C.3     1  UNL1        0.0015
     18 C         143.1806  141.5555  170.0318 C.3     1  UNL1        0.0172
     19 C         142.2435  140.4864  169.5531 C.3     1  UNL1        0.0689
     20 N         142.7197  139.0687  169.4372 N.3     1  UNL1       -0.3209
     21 H         143.6975  139.0141  169.7223 H       1  UNL1        0.1189
     22 H         142.6297  138.7579  168.4699 H       1  UNL1        0.1189
     23 N         141.9421  138.9870  164.0005 N.pl3   1  UNL1       -0.2965
     24 H         142.0377  138.1889  163.4321 H       1  UNL1        0.1537
     25 C         142.9977  140.0525  163.9812 C.ar    1  UNL1        0.1318
     26 C         144.4483  139.6716  164.0088 C.ar    1  UNL1        0.0344
     27 C         145.5040  140.7371  163.9895 C.ar    1  UNL1        0.0041
     28 C         145.1091  142.1834  163.9425 C.ar    1  UNL1        0.0148
     29 C         143.6585  142.5643  163.9149 C.ar    1  UNL1        0.0600
     30 N         142.6029  141.4988  163.9342 N.ar    1  UNL1       -0.2349
     31 C         143.2636  144.0105  163.8679 C.3     1  UNL1        0.0403
     32 C         143.6322  145.4615  163.9615 C.3     1  UNL1        0.0063
     33 C         142.2109  145.0646  163.6930 C.3     1  UNL1        0.0063
@<TRIPOS>BOND
     1     7     8   am
     2     8     9    2
     3     8     1    1
     4     1     2   ar
     5     2     3   ar
     6     3     4   ar
     7     4    12    1
     8    14    12    1
     9    14    15    1
    10    15    16    1
    11    16    17    1
    12    17    18    1
    13    18    19    1
    14    19    20    1
    15     4     5   ar
    16     5     6   ar
    17     6    23    1
    18    23    25    1
    19    25    26   ar
    20    26    27   ar
    21    27    28   ar
    22    28    29   ar
    23    29    31    1
    24    31    32    1
    25    32    33    1
    26    29    30   ar
    27     6     1   ar
    28    30    25   ar
    29    19    14    1
    30    33    31    1
    31     7    10    1
    32     7    11    1
    33    12    13    1
    34    20    21    1
    35    20    22    1
    36    23    24    1
@<TRIPOS>MOLECULE
*****
 33 36 0 0 0
SMALL
GASTEIGER

@<TRIPOS>ATOM
      1 C         144.2145  140.1830  164.4403 C.ar    1  UNL1        0.1691
      2 N         143.9662  138.7467  164.7940 N.ar    1  UNL1       -0.1409
      3 N         143.3058  138.3979  166.0948 N.ar    1  UNL1       -0.1329
      4 C         142.8937  139.4856  167.0420 C.ar    1  UNL1        0.1515
      5 C         143.1420  140.9219  166.6883 C.ar    1  UNL1        0.0522
      6 C         143.8024  141.2707  165.3874 C.ar    1  UNL1        0.0764
      7 N         144.4971  139.7989  161.8863 N.am    1  UNL1       -0.3240
      8 C         144.8749  140.5318  163.1394 C.2     1  UNL1        0.2635
      9 O         145.9131  141.6133  163.0916 O.2     1  UNL1       -0.2686
     10 H         144.9306  140.0278  161.0325 H       1  UNL1        0.1453
     11 H         143.8157  139.0890  161.9177 H       1  UNL1        0.1453
     12 N         142.2333  139.1368  168.3428 N.pl3   1  UNL1       -0.3170
     13 H         142.2177  138.2023  168.6520 H       1  UNL1        0.1482
     14 C         141.5966  140.2120  169.1727 C.3     1  UNL1        0.0845
     15 C         140.2609  140.7704  168.7801 C.3     1  UNL1        0.0209
     16 C         139.6242  141.8456  169.6100 C.3     1  UNL1        0.0018
     17 C         140.3233  142.3624  170.8324 C.3     1  UNL1        0.0015
     18 C         141.6590  141.8040  171.2249 C.3     1  UNL1        0.0172
     19 C         142.2957  140.7288  170.3951 C.3     1  UNL1        0.0689
     20 N         143.6314  140.1705  170.7876 N.3     1  UNL1       -0.3209
     21 H         143.9572  140.6332  171.6362 H       1  UNL1        0.1189
     22 H         144.3010  140.3298  170.0349 H       1  UNL1        0.1189
     23 N         144.0507  142.7071  165.0337 N.pl3   1  UNL1       -0.2965
     24 H         144.9076  143.1310  165.2688 H       1  UNL1        0.1537
     25 C         142.9933  143.4978  164.3218 C.ar    1  UNL1        0.1318
     26 C         143.3058  144.1597  163.0125 C.ar    1  UNL1        0.0344
     27 C         142.2483  144.9504  162.3007 C.ar    1  UNL1        0.0041
     28 C         140.8785  145.0792  162.8981 C.ar    1  UNL1        0.0148
     29 C         140.5661  144.4173  164.2074 C.ar    1  UNL1        0.0600
     30 N         141.6234  143.6266  164.9193 N.ar    1  UNL1       -0.2349
     31 C         139.1962  144.5461  164.8049 C.3     1  UNL1        0.0403
     32 C         138.2890  145.0879  165.8694 C.3     1  UNL1        0.0063
     33 C         137.7308  144.2273  164.7750 C.3     1  UNL1        0.0063
@<TRIPOS>BOND
     1     7     8   am
     2     8     9    2
     3     8     1    1
     4     1     2   ar
     5     2     3   ar
     6     3     4   ar
     7     4    12    1
     8    14    12    1
     9    14    15    1
    10    15    16    1
    11    16    17    1
    12    17    18    1
    13    18    19    1
    14    19    20    1
    15     4     5   ar
    16     5     6   ar
    17     6    23    1
    18    23    25    1
    19    25    26   ar
    20    26    27   ar
    21    27    28   ar
    22    28    29   ar
    23    29    31    1
    24    31    32    1
    25    32    33    1
    26    29    30   ar
    27     6     1   ar
    28    30    25   ar
    29    19    14    1
    30    33    31    1
    31     7    10    1
    32     7    11    1
    33    12    13    1
    34    20    21    1
    35    20    22    1
    36    23    24    1
@<TRIPOS>MOLECULE
*****
 33 36 0 0 0
SMALL
GASTEIGER

@<TRIPOS>ATOM
      1 C         140.3191  144.7195  162.7781 C.ar    1  UNL1        0.1691
      2 N         141.4210  145.5261  163.3985 N.ar    1  UNL1       -0.1409
      3 N         142.6053  144.8351  164.0067 N.ar    1  UNL1       -0.1329
      4 C         142.6877  143.3375  163.9944 C.ar    1  UNL1        0.1515
      5 C         141.5858  142.5308  163.3740 C.ar    1  UNL1        0.0522
      6 C         140.4015  143.2218  162.7658 C.ar    1  UNL1        0.0764
      7 N         139.3348  146.6168  161.3012 N.am    1  UNL1       -0.3240
      8 C         139.1348  145.4105  162.1699 C.2     1  UNL1        0.2635
      9 O         137.7504  144.8952  162.4305 O.2     1  UNL1       -0.2686
     10 H         138.5575  147.0703  160.9020 H       1  UNL1        0.1453
     11 H         140.2434  146.9550  161.1301 H       1  UNL1        0.1453
     12 N         143.8721  142.6465  164.6026 N.pl3   1  UNL1       -0.3170
     13 H         144.7578  143.0757  164.5796 H       1  UNL1        0.1482
     14 C         143.7069  141.3016  165.2459 C.3     1  UNL1        0.0845
     15 C         142.9108  141.1675  166.5102 C.3     1  UNL1        0.0209
     16 C         142.7457  139.8226  167.1535 C.3     1  UNL1        0.0018
     17 C         143.3766  138.6116  166.5325 C.3     1  UNL1        0.0015
     18 C         144.1727  138.7456  165.2683 C.3     1  UNL1        0.0172
     19 C         144.3379  140.0906  164.6250 C.3     1  UNL1        0.0689
     20 N         145.1339  140.2246  163.3608 N.3     1  UNL1       -0.3209
     21 H         145.4868  139.3089  163.0825 H       1  UNL1        0.1189
     22 H         145.9181  140.8576  163.5182 H       1  UNL1        0.1189
     23 N         139.2995  142.4151  162.1453 N.pl3   1  UNL1       -0.2965
     24 H         138.7294  142.8142  161.4490 H       1  UNL1        0.1537
     25 C         139.0662  141.0004  162.5858 C.ar    1  UNL1        0.1318
     26 C         139.0992  139.8869  161.5812 C.ar    1  UNL1        0.0344
     27 C         138.8659  138.4722  162.0218 C.ar    1  UNL1        0.0041
     28 C         138.5997  138.1709  163.4669 C.ar    1  UNL1        0.0148
     29 C         138.5668  139.2843  164.4715 C.ar    1  UNL1        0.0600
     30 N         138.8000  140.6990  164.0310 N.ar    1  UNL1       -0.2349
     31 C         138.3006  138.9830  165.9166 C.3     1  UNL1        0.0403
     32 C         138.5938  139.2200  167.3684 C.3     1  UNL1        0.0063
     33 C         137.5463  138.2240  166.9677 C.3     1  UNL1        0.0063
@<TRIPOS>BOND
     1     7     8   am
     2     8     9    2
     3     8     1    1
     4     1     2   ar
     5     2     3   ar
     6     3     4   ar
     7     4    12    1
     8    14    12    1
     9    14    15    1
    10    15    16    1
    11    16    17    1
    12    17    18    1
    13    18    19    1
    14    19    20    1
    15     4     5   ar
    16     5     6   ar
    17     6    23    1
    18    23    25    1
    19    25    26   ar
    20    26    27   ar
    21    27    28   ar
    22    28    29   ar
    23    29    31    1
    24    31    32    1
    25    32    33    1
    26    29    30   ar
    27     6     1   ar
    28    30    25   ar
    29    19    14    1
    30    33    31    1
    31     7    10    1
    32     7    11    1
    33    12    13    1
    34    20    21    1
    35    20    22    1
    36    23    24    1
