@<TRIPOS>MOLECULE
*****
 49 54 0 0 0
SMALL
GASTEIGER

@<TRIPOS>ATOM
      1 C         138.0823  142.8979  156.2460 C.3     1  UNL1        0.1318
      2 C         138.1414  144.2640  155.6294 C.3     1  UNL1        0.1741
      3 C         136.8789  143.8361  154.9417 C.3     1  UNL1        0.0473
      4 C         137.9367  145.5407  154.8690 C.3     1  UNL1        0.1446
      5 N         139.0602  146.4719  155.2156 N.am    1  UNL1       -0.2060
      6 C         139.9594  145.7708  156.1902 C.2     1  UNL1        0.4097
      7 O         141.2075  146.3353  156.8018 O.2     1  UNL1       -0.2258
      8 O         139.3917  144.4063  156.4460 O.3     1  UNL1       -0.4381
      9 C         139.2512  147.8605  154.6814 C.ar    1  UNL1        0.1400
     10 C         138.8374  149.0442  155.5047 C.ar    1  UNL1        0.0348
     11 C         139.0284  150.4328  154.9707 C.ar    1  UNL1        0.0045
     12 C         139.6330  150.6378  153.6134 C.ar    1  UNL1        0.0222
     13 C         140.0468  149.4542  152.7901 C.ar    1  UNL1        0.1004
     14 N         139.8558  148.0655  153.3241 N.ar    1  UNL1       -0.2287
     15 C         139.8239  152.0265  153.0793 C.ar    1  UNL1        0.0358
     16 C         138.6476  152.9479  152.9480 C.ar    1  UNL1        0.0031
     17 C         138.8386  154.3365  152.4140 C.ar    1  UNL1        0.0002
     18 C         140.2059  154.8038  152.0113 C.ar    1  UNL1        0.0031
     19 C         141.3822  153.8824  152.1426 C.ar    1  UNL1        0.0372
     20 C         141.1913  152.4938  152.6766 C.ar    1  UNL1        0.1468
     21 O         142.3676  151.5724  152.8079 O.3     1  UNL1       -0.4045
     22 C         143.4356  151.8594  153.8213 C.3     1  UNL1        0.5753
     23 F         144.5036  152.1464  154.8347 F       1  UNL1       -0.1328
     24 F         144.4651  151.8800  152.7305 F       1  UNL1       -0.1328
     25 F         142.4062  151.8387  154.9121 F       1  UNL1       -0.1328
     26 C         138.0916  141.5036  158.4383 C.2     1  UNL1        0.2459
     27 O         137.1280  140.5318  157.8244 O.2     1  UNL1       -0.2701
     28 N         138.5688  142.6867  157.6491 N.am    1  UNL1       -0.2976
     29 H         139.2012  143.3245  158.0521 H       1  UNL1        0.1499
     30 C         139.5510  140.8700  162.6477 C.ar    1  UNL1        0.0536
     31 C         139.1834  142.2472  162.1807 C.ar    1  UNL1        0.0048
     32 C         138.6969  142.4584  160.7775 C.ar    1  UNL1        0.0047
     33 C         138.5781  141.2924  159.8414 C.ar    1  UNL1        0.0534
     34 C         138.9457  139.9152  160.3084 C.ar    1  UNL1        0.0047
     35 C         139.4322  139.7040  161.7115 C.ar    1  UNL1        0.0048
     36 C         142.4012  139.4098  166.8996 C.ar    1  UNL1        0.0143
     37 C         142.2256  139.5974  168.3774 C.ar    1  UNL1        0.0091
     38 C         141.0320  140.3383  168.9028 C.ar    1  UNL1        0.0698
     39 C         140.0138  140.8917  167.9504 C.ar    1  UNL1        0.0326
     40 C         140.1893  140.7042  166.4726 C.ar    1  UNL1        0.1192
     41 N         139.3577  141.1341  165.3006 N.ar    1  UNL1       -0.2082
     42 C         140.0375  140.6588  164.0508 C.ar    1  UNL1        0.2296
     43 O         141.2892  139.9352  164.4504 O.2     1  UNL1       -0.4349
     44 C         141.3830  139.9632  165.9472 C.ar    1  UNL1        0.1607
     45 C         144.2869  139.1462  165.1319 C.3     1  UNL1        0.0048
     46 C         143.5949  138.6689  166.3741 C.3     1  UNL1        0.0254
     47 C         144.0966  137.4504  167.0911 C.3     1  UNL1        0.0048
     48 C         140.8565  140.5258  170.3807 C.1     1  UNL1        0.1005
     49 N         140.6809  140.7134  171.8586 N.1     1  UNL1       -0.1908
@<TRIPOS>BOND
     1    45    46    1
     2    46    47    1
     3    46    36    1
     4    36    37   ar
     5    37    38   ar
     6    38    48    1
     7    48    49    3
     8    38    39   ar
     9    39    40   ar
    10    40    41   ar
    11    41    42   ar
    12    42    30    1
    13    30    31   ar
    14    31    32   ar
    15    32    33   ar
    16    33    26    1
    17    26    27    2
    18    26    28   am
    19    28     1    1
    20     1     2    1
    21     2     3    1
    22     2     4    1
    23     4     5    1
    24     5     9    1
    25     9    10   ar
    26    10    11   ar
    27    11    12   ar
    28    12    15    1
    29    15    16   ar
    30    16    17   ar
    31    17    18   ar
    32    18    19   ar
    33    19    20   ar
    34    20    21    1
    35    21    22    1
    36    22    23    1
    37    22    24    1
    38    22    25    1
    39    12    13   ar
    40    13    14   ar
    41     5     6   am
    42     6     7    2
    43     6     8    1
    44    33    34   ar
    45    34    35   ar
    46    42    43   ar
    47    43    44   ar
    48    44    36   ar
    49    44    40   ar
    50    35    30   ar
    51     8     2    1
    52    14     9   ar
    53    20    15   ar
    54    28    29    1
@<TRIPOS>MOLECULE
*****
 49 54 0 0 0
SMALL
GASTEIGER

@<TRIPOS>ATOM
      1 C         144.0093  140.4621  158.0125 C.3     1  UNL1        0.1318
      2 C         143.7150  140.9533  159.3989 C.3     1  UNL1        0.1741
      3 C         143.4463  142.2583  158.7098 C.3     1  UNL1        0.0473
      4 C         143.3644  141.7173  160.6412 C.3     1  UNL1        0.1446
      5 N         143.4780  140.7818  161.8082 N.am    1  UNL1       -0.2060
      6 C         143.8987  139.4396  161.2871 C.2     1  UNL1        0.4097
      7 O         144.1320  138.2077  162.1106 O.2     1  UNL1       -0.2258
      8 O         144.0452  139.5455  159.7981 O.3     1  UNL1       -0.4381
      9 C         143.2167  141.1277  163.2442 C.ar    1  UNL1        0.1400
     10 C         143.1147  140.0391  164.2711 C.ar    1  UNL1        0.0348
     11 C         142.8534  140.3848  165.7072 C.ar    1  UNL1        0.0045
     12 C         142.6942  141.8191  166.1163 C.ar    1  UNL1        0.0222
     13 C         142.7962  142.9077  165.0893 C.ar    1  UNL1        0.1004
     14 N         143.0575  142.5620  163.6533 N.ar    1  UNL1       -0.2287
     15 C         142.4329  142.1648  167.5523 C.ar    1  UNL1        0.0358
     16 C         143.5760  142.2747  168.5173 C.ar    1  UNL1        0.0031
     17 C         143.3147  142.6204  169.9533 C.ar    1  UNL1        0.0002
     18 C         141.9103  142.8563  170.4244 C.ar    1  UNL1        0.0031
     19 C         140.7672  142.7465  169.4595 C.ar    1  UNL1        0.0372
     20 C         141.0284  142.4007  168.0234 C.ar    1  UNL1        0.1468
     21 O         139.8853  142.2909  167.0585 O.3     1  UNL1       -0.4045
     22 C         139.4974  140.9520  166.5046 C.3     1  UNL1        0.5753
     23 F         139.1095  139.6131  165.9506 F       1  UNL1       -0.1328
     24 F         139.6228  141.4922  165.1109 F       1  UNL1       -0.1328
     25 F         139.3720  140.4118  167.8982 F       1  UNL1       -0.1328
     26 C         142.6169  138.6643  156.7557 C.2     1  UNL1        0.2459
     27 O         141.7228  139.7381  156.2103 O.2     1  UNL1       -0.2701
     28 N         143.7602  139.0263  157.6568 N.am    1  UNL1       -0.2976
     29 H         144.3470  138.3215  158.0148 H       1  UNL1        0.1499
     30 C         141.8694  134.3570  155.6887 C.ar    1  UNL1        0.0536
     31 C         141.0185  135.4369  155.0887 C.ar    1  UNL1        0.0048
     32 C         141.2678  136.8726  155.4444 C.ar    1  UNL1        0.0047
     33 C         142.3678  137.2286  156.4001 C.ar    1  UNL1        0.0534
     34 C         143.2186  136.1487  157.0000 C.ar    1  UNL1        0.0047
     35 C         142.9694  134.7130  156.6443 C.ar    1  UNL1        0.0048
     36 C         142.0136  129.0388  155.5171 C.ar    1  UNL1        0.0143
     37 C         141.3016  128.0102  154.6894 C.ar    1  UNL1        0.0091
     38 C         140.3092  128.4399  153.6501 C.ar    1  UNL1        0.0698
     39 C         140.0286  129.8982  153.4383 C.ar    1  UNL1        0.0326
     40 C         140.7406  130.9267  154.2660 C.ar    1  UNL1        0.1192
     41 N         140.6709  132.4250  154.2830 N.ar    1  UNL1       -0.2082
     42 C         141.6202  132.9213  155.3330 C.ar    1  UNL1        0.2296
     43 O         142.2767  131.7297  155.9649 O.2     1  UNL1       -0.4349
     44 C         141.7331  130.4970  155.3054 C.ar    1  UNL1        0.1607
     45 C         144.4609  128.9298  156.3824 C.3     1  UNL1        0.0048
     46 C         143.0060  128.6090  156.5566 C.3     1  UNL1        0.0254
     47 C         142.5435  127.8585  157.7703 C.3     1  UNL1        0.0048
     48 C         139.5971  127.4112  152.8223 C.1     1  UNL1        0.1005
     49 N         138.8851  126.3827  151.9946 N.1     1  UNL1       -0.1908
@<TRIPOS>BOND
     1    45    46    1
     2    46    47    1
     3    46    36    1
     4    36    37   ar
     5    37    38   ar
     6    38    48    1
     7    48    49    3
     8    38    39   ar
     9    39    40   ar
    10    40    41   ar
    11    41    42   ar
    12    42    30    1
    13    30    31   ar
    14    31    32   ar
    15    32    33   ar
    16    33    26    1
    17    26    27    2
    18    26    28   am
    19    28     1    1
    20     1     2    1
    21     2     3    1
    22     2     4    1
    23     4     5    1
    24     5     9    1
    25     9    10   ar
    26    10    11   ar
    27    11    12   ar
    28    12    15    1
    29    15    16   ar
    30    16    17   ar
    31    17    18   ar
    32    18    19   ar
    33    19    20   ar
    34    20    21    1
    35    21    22    1
    36    22    23    1
    37    22    24    1
    38    22    25    1
    39    12    13   ar
    40    13    14   ar
    41     5     6   am
    42     6     7    2
    43     6     8    1
    44    33    34   ar
    45    34    35   ar
    46    42    43   ar
    47    43    44   ar
    48    44    36   ar
    49    44    40   ar
    50    35    30   ar
    51     8     2    1
    52    14     9   ar
    53    20    15   ar
    54    28    29    1
@<TRIPOS>MOLECULE
*****
 49 54 0 0 0
SMALL
GASTEIGER

@<TRIPOS>ATOM
      1 C         139.7304  140.6150  158.0917 C.3     1  UNL1        0.1318
      2 C         139.7678  141.0576  159.5244 C.3     1  UNL1        0.1741
      3 C         139.5622  142.4251  158.9433 C.3     1  UNL1        0.0473
      4 C         139.7622  141.7860  160.8357 C.3     1  UNL1        0.1446
      5 N         139.9566  140.7763  161.9277 N.am    1  UNL1       -0.2060
      6 C         140.0823  139.4238  161.2914 C.2     1  UNL1        0.4097
      7 O         140.2885  138.1253  162.0136 O.2     1  UNL1       -0.2258
      8 O         139.9656  139.5976  159.8061 O.3     1  UNL1       -0.4381
      9 C         140.0150  141.0678  163.3979 C.ar    1  UNL1        0.1400
     10 C         138.8177  141.6402  164.0971 C.ar    1  UNL1        0.0348
     11 C         138.8761  141.9317  165.5674 C.ar    1  UNL1        0.0045
     12 C         140.1317  141.6508  166.3384 C.ar    1  UNL1        0.0222
     13 C         141.3290  141.0784  165.6392 C.ar    1  UNL1        0.1004
     14 N         141.2706  140.7869  164.1690 N.ar    1  UNL1       -0.2287
     15 C         140.1900  141.9423  167.8086 C.ar    1  UNL1        0.0358
     16 C         140.4474  143.3407  168.2865 C.ar    1  UNL1        0.0031
     17 C         140.5057  143.6321  169.7567 C.ar    1  UNL1        0.0002
     18 C         140.3066  142.5252  170.7492 C.ar    1  UNL1        0.0031
     19 C         140.0491  141.1269  170.2715 C.ar    1  UNL1        0.0372
     20 C         139.9908  140.8354  168.8012 C.ar    1  UNL1        0.1468
     21 O         139.7334  139.4370  168.3235 O.3     1  UNL1       -0.4045
     22 C         138.4132  139.0875  167.7031 C.3     1  UNL1        0.5753
     23 F         137.0930  138.7380  167.0827 F       1  UNL1       -0.1328
     24 F         139.1103  138.7192  166.4270 F       1  UNL1       -0.1328
     25 F         137.7160  139.4557  168.9791 F       1  UNL1       -0.1328
     26 C         141.2851  138.8704  156.9564 C.2     1  UNL1        0.2459
     27 O         142.2090  139.9719  156.5287 O.2     1  UNL1       -0.2701
     28 N         140.0458  139.1919  157.7379 N.am    1  UNL1       -0.2976
     29 H         139.4394  138.4689  158.0185 H       1  UNL1        0.1499
     30 C         142.2315  134.6010  155.8949 C.ar    1  UNL1        0.0536
     31 C         143.0232  135.3025  156.9584 C.ar    1  UNL1        0.0048
     32 C         142.7077  136.7257  157.3122 C.ar    1  UNL1        0.0047
     33 C         141.6006  137.4473  156.6025 C.ar    1  UNL1        0.0534
     34 C         140.8089  136.7457  155.5390 C.ar    1  UNL1        0.0047
     35 C         141.1244  135.3225  155.1853 C.ar    1  UNL1        0.0048
     36 C         141.8525  129.5011  154.4178 C.ar    1  UNL1        0.0143
     37 C         142.8522  128.3958  154.2475 C.ar    1  UNL1        0.0091
     38 C         144.3051  128.6501  154.5198 C.ar    1  UNL1        0.0698
     39 C         144.7585  130.0098  154.9624 C.ar    1  UNL1        0.0326
     40 C         143.7588  131.1151  155.1327 C.ar    1  UNL1        0.1192
     41 N         143.9079  132.5471  155.5534 N.ar    1  UNL1       -0.2082
     42 C         142.5470  133.1778  155.5411 C.ar    1  UNL1        0.2296
     43 O         141.5569  132.1356  155.1128 O.2     1  UNL1       -0.4349
     44 C         142.3059  130.8607  154.8604 C.ar    1  UNL1        0.1607
     45 C         139.6472  128.2421  154.9669 C.3     1  UNL1        0.0048
     46 C         140.3996  129.2467  154.1455 C.3     1  UNL1        0.0254
     47 C         139.6989  129.9970  153.0517 C.3     1  UNL1        0.0048
     48 C         145.3048  127.5448  154.3495 C.1     1  UNL1        0.1005
     49 N         146.3045  126.4395  154.1792 N.1     1  UNL1       -0.1908
@<TRIPOS>BOND
     1    45    46    1
     2    46    47    1
     3    46    36    1
     4    36    37   ar
     5    37    38   ar
     6    38    48    1
     7    48    49    3
     8    38    39   ar
     9    39    40   ar
    10    40    41   ar
    11    41    42   ar
    12    42    30    1
    13    30    31   ar
    14    31    32   ar
    15    32    33   ar
    16    33    26    1
    17    26    27    2
    18    26    28   am
    19    28     1    1
    20     1     2    1
    21     2     3    1
    22     2     4    1
    23     4     5    1
    24     5     9    1
    25     9    10   ar
    26    10    11   ar
    27    11    12   ar
    28    12    15    1
    29    15    16   ar
    30    16    17   ar
    31    17    18   ar
    32    18    19   ar
    33    19    20   ar
    34    20    21    1
    35    21    22    1
    36    22    23    1
    37    22    24    1
    38    22    25    1
    39    12    13   ar
    40    13    14   ar
    41     5     6   am
    42     6     7    2
    43     6     8    1
    44    33    34   ar
    45    34    35   ar
    46    42    43   ar
    47    43    44   ar
    48    44    36   ar
    49    44    40   ar
    50    35    30   ar
    51     8     2    1
    52    14     9   ar
    53    20    15   ar
    54    28    29    1
@<TRIPOS>MOLECULE
*****
 49 54 0 0 0
SMALL
GASTEIGER

@<TRIPOS>ATOM
      1 C         140.1048  142.7098  157.0226 C.3     1  UNL1        0.1318
      2 C         140.2542  144.1429  156.6055 C.3     1  UNL1        0.1741
      3 C         141.5971  144.0305  157.2644 C.3     1  UNL1        0.0473
      4 C         140.6844  145.5525  156.3261 C.3     1  UNL1        0.1446
      5 N         139.5762  146.2364  155.5818 N.am    1  UNL1       -0.2060
      6 C         138.4611  145.2495  155.4012 C.2     1  UNL1        0.4097
      7 O         137.1560  145.5107  154.7093 O.2     1  UNL1       -0.2258
      8 O         138.8801  143.9556  156.0338 O.3     1  UNL1       -0.4381
      9 C         139.5820  147.6577  155.1023 C.ar    1  UNL1        0.1400
     10 C         140.3067  148.0203  153.8400 C.ar    1  UNL1        0.0348
     11 C         140.3126  149.4415  153.3604 C.ar    1  UNL1        0.0045
     12 C         139.5936  150.5001  154.1430 C.ar    1  UNL1        0.0222
     13 C         138.8689  150.1375  155.4052 C.ar    1  UNL1        0.1004
     14 N         138.8630  148.7162  155.8849 N.ar    1  UNL1       -0.2287
     15 C         139.5995  151.9213  153.6633 C.ar    1  UNL1        0.0358
     16 C         138.3769  152.4988  153.0138 C.ar    1  UNL1        0.0031
     17 C         138.3828  153.9200  152.5342 C.ar    1  UNL1        0.0002
     18 C         139.6113  154.7638  152.7041 C.ar    1  UNL1        0.0031
     19 C         140.8338  154.1865  153.3536 C.ar    1  UNL1        0.0372
     20 C         140.8280  152.7652  153.8332 C.ar    1  UNL1        0.1468
     21 O         142.0506  152.1878  154.4828 O.3     1  UNL1       -0.4045
     22 C         143.3383  152.1059  153.7181 C.3     1  UNL1        0.5753
     23 F         144.6261  152.0240  152.9533 F       1  UNL1       -0.1328
     24 F         144.0746  152.6683  154.8977 F       1  UNL1       -0.1328
     25 F         142.6021  151.5435  152.5384 F       1  UNL1       -0.1328
     26 C         139.4898  142.3952  159.5272 C.2     1  UNL1        0.2459
     27 O         138.1120  142.9220  159.2552 O.2     1  UNL1       -0.2701
     28 N         140.4862  142.2891  158.4110 N.am    1  UNL1       -0.2976
     29 H         141.3905  141.9433  158.5896 H       1  UNL1        0.1499
     30 C         140.6342  141.1330  163.6922 C.ar    1  UNL1        0.0536
     31 C         141.5975  140.9401  162.5588 C.ar    1  UNL1        0.0048
     32 C         141.2160  141.3609  161.1704 C.ar    1  UNL1        0.0047
     33 C         139.8712  141.9745  160.9155 C.ar    1  UNL1        0.0534
     34 C         138.9078  142.1673  162.0490 C.ar    1  UNL1        0.0047
     35 C         139.2894  141.7465  163.4373 C.ar    1  UNL1        0.0048
     36 C         141.0474  140.7701  168.9867 C.ar    1  UNL1        0.0143
     37 C         141.8204  139.8709  169.9054 C.ar    1  UNL1        0.0091
     38 C         142.7058  138.8014  169.3380 C.ar    1  UNL1        0.0698
     39 C         142.8182  138.6309  167.8519 C.ar    1  UNL1        0.0326
     40 C         142.0452  139.5300  166.9333 C.ar    1  UNL1        0.1192
     41 N         141.9561  139.5996  165.4376 N.ar    1  UNL1       -0.2082
     42 C         141.0156  140.7122  165.0806 C.ar    1  UNL1        0.2296
     43 O         140.5234  141.3303  166.3556 O.2     1  UNL1       -0.4349
     44 C         141.1598  140.5996  167.5007 C.ar    1  UNL1        0.1607
     45 C         138.9560  141.4640  170.3632 C.3     1  UNL1        0.0048
     46 C         140.1619  141.8397  169.5541 C.3     1  UNL1        0.0254
     47 C         140.4824  143.2851  169.3124 C.3     1  UNL1        0.0048
     48 C         143.4789  137.9022  170.2567 C.1     1  UNL1        0.1005
     49 N         144.2519  137.0030  171.1754 N.1     1  UNL1       -0.1908
@<TRIPOS>BOND
     1    45    46    1
     2    46    47    1
     3    46    36    1
     4    36    37   ar
     5    37    38   ar
     6    38    48    1
     7    48    49    3
     8    38    39   ar
     9    39    40   ar
    10    40    41   ar
    11    41    42   ar
    12    42    30    1
    13    30    31   ar
    14    31    32   ar
    15    32    33   ar
    16    33    26    1
    17    26    27    2
    18    26    28   am
    19    28     1    1
    20     1     2    1
    21     2     3    1
    22     2     4    1
    23     4     5    1
    24     5     9    1
    25     9    10   ar
    26    10    11   ar
    27    11    12   ar
    28    12    15    1
    29    15    16   ar
    30    16    17   ar
    31    17    18   ar
    32    18    19   ar
    33    19    20   ar
    34    20    21    1
    35    21    22    1
    36    22    23    1
    37    22    24    1
    38    22    25    1
    39    12    13   ar
    40    13    14   ar
    41     5     6   am
    42     6     7    2
    43     6     8    1
    44    33    34   ar
    45    34    35   ar
    46    42    43   ar
    47    43    44   ar
    48    44    36   ar
    49    44    40   ar
    50    35    30   ar
    51     8     2    1
    52    14     9   ar
    53    20    15   ar
    54    28    29    1
@<TRIPOS>MOLECULE
*****
 49 54 0 0 0
SMALL
GASTEIGER

@<TRIPOS>ATOM
      1 C         143.6103  138.3645  156.0453 C.3     1  UNL1        0.1318
      2 C         143.0942  137.0492  155.5418 C.3     1  UNL1        0.1741
      3 C         142.6842  137.8487  154.3407 C.3     1  UNL1        0.0473
      4 C         142.4923  135.9010  154.7872 C.3     1  UNL1        0.1446
      5 N         142.6382  134.6670  155.6272 N.am    1  UNL1       -0.2060
      6 C         143.3303  135.0524  156.9010 C.2     1  UNL1        0.4097
      7 O         143.6792  134.1278  158.0295 O.2     1  UNL1       -0.2258
      8 O         143.6121  136.5247  156.8483 O.3     1  UNL1       -0.4381
      9 C         142.1737  133.2892  155.2583 C.ar    1  UNL1        0.1400
     10 C         141.2728  133.0933  154.0751 C.ar    1  UNL1        0.0348
     11 C         140.8082  131.7157  153.7061 C.ar    1  UNL1        0.0045
     12 C         141.2445  130.5339  154.5204 C.ar    1  UNL1        0.0222
     13 C         142.1454  130.7298  155.7037 C.ar    1  UNL1        0.1004
     14 N         142.6100  132.1075  156.0726 N.ar    1  UNL1       -0.2287
     15 C         140.7799  129.1562  154.1514 C.ar    1  UNL1        0.0358
     16 C         139.7433  128.4653  154.9869 C.ar    1  UNL1        0.0031
     17 C         139.2787  127.0877  154.6179 C.ar    1  UNL1        0.0002
     18 C         139.8508  126.4009  153.4133 C.ar    1  UNL1        0.0031
     19 C         140.8874  127.0916  152.5778 C.ar    1  UNL1        0.0372
     20 C         141.3520  128.4693  152.9468 C.ar    1  UNL1        0.1468
     21 O         142.3886  129.1601  152.1112 O.3     1  UNL1       -0.4045
     22 C         143.7946  129.2907  152.6172 C.3     1  UNL1        0.5753
     23 F         145.2007  129.4213  153.1231 F       1  UNL1       -0.1328
     24 F         143.8545  127.8076  152.8335 F       1  UNL1       -0.1328
     25 F         143.7348  130.7738  152.4008 F       1  UNL1       -0.1328
     26 C         142.2370  139.4463  157.9672 C.2     1  UNL1        0.2459
     27 O         141.1582  139.8113  156.9911 O.2     1  UNL1       -0.2701
     28 N         143.4630  138.7229  157.4944 N.am    1  UNL1       -0.2976
     29 H         144.1711  138.4834  158.1352 H       1  UNL1        0.1499
     30 C         141.7951  140.5216  162.3145 C.ar    1  UNL1        0.0536
     31 C         142.4063  141.5020  161.3578 C.ar    1  UNL1        0.0048
     32 C         142.5536  141.1435  159.9087 C.ar    1  UNL1        0.0047
     33 C         142.0897  139.8047  159.4163 C.ar    1  UNL1        0.0534
     34 C         141.4785  138.8243  160.3730 C.ar    1  UNL1        0.0047
     35 C         141.3313  139.1828  161.8221 C.ar    1  UNL1        0.0048
     36 C         142.0135  140.4833  167.6329 C.ar    1  UNL1        0.0143
     37 C         141.5260  141.4230  168.6956 C.ar    1  UNL1        0.0091
     38 C         140.8062  142.6814  168.3112 C.ar    1  UNL1        0.0698
     39 C         140.5737  143.0004  166.8640 C.ar    1  UNL1        0.0326
     40 C         141.0613  142.0608  165.8013 C.ar    1  UNL1        0.1192
     41 N         140.9789  142.1089  164.3043 N.ar    1  UNL1       -0.2082
     42 C         141.6478  140.8800  163.7636 C.ar    1  UNL1        0.2296
     43 O         142.1437  140.0724  164.9264 O.2     1  UNL1       -0.4349
     44 C         141.7811  140.8022  166.1857 C.ar    1  UNL1        0.1607
     45 C         143.4526  138.4233  166.9732 C.3     1  UNL1        0.0048
     46 C         142.7334  139.2247  168.0174 C.3     1  UNL1        0.0254
     47 C         142.7341  138.7676  169.4461 C.3     1  UNL1        0.0048
     48 C         140.3186  143.6212  169.3740 C.1     1  UNL1        0.1005
     49 N         139.8311  144.5608  170.4367 N.1     1  UNL1       -0.1908
@<TRIPOS>BOND
     1    45    46    1
     2    46    47    1
     3    46    36    1
     4    36    37   ar
     5    37    38   ar
     6    38    48    1
     7    48    49    3
     8    38    39   ar
     9    39    40   ar
    10    40    41   ar
    11    41    42   ar
    12    42    30    1
    13    30    31   ar
    14    31    32   ar
    15    32    33   ar
    16    33    26    1
    17    26    27    2
    18    26    28   am
    19    28     1    1
    20     1     2    1
    21     2     3    1
    22     2     4    1
    23     4     5    1
    24     5     9    1
    25     9    10   ar
    26    10    11   ar
    27    11    12   ar
    28    12    15    1
    29    15    16   ar
    30    16    17   ar
    31    17    18   ar
    32    18    19   ar
    33    19    20   ar
    34    20    21    1
    35    21    22    1
    36    22    23    1
    37    22    24    1
    38    22    25    1
    39    12    13   ar
    40    13    14   ar
    41     5     6   am
    42     6     7    2
    43     6     8    1
    44    33    34   ar
    45    34    35   ar
    46    42    43   ar
    47    43    44   ar
    48    44    36   ar
    49    44    40   ar
    50    35    30   ar
    51     8     2    1
    52    14     9   ar
    53    20    15   ar
    54    28    29    1
@<TRIPOS>MOLECULE
*****
 49 54 0 0 0
SMALL
GASTEIGER

@<TRIPOS>ATOM
      1 C         141.9853  141.0023  157.9712 C.3     1  UNL1        0.1318
      2 C         141.8868  141.3643  159.4236 C.3     1  UNL1        0.1741
      3 C         142.7813  142.5051  159.0380 C.3     1  UNL1        0.0473
      4 C         141.9754  141.9647  160.7953 C.3     1  UNL1        0.1446
      5 N         141.1563  141.1194  161.7250 N.am    1  UNL1       -0.2060
      6 C         140.5615  139.9966  160.9279 C.2     1  UNL1        0.4097
      7 O         139.6714  138.9126  161.4598 O.2     1  UNL1       -0.2258
      8 O         141.0130  140.1478  159.5055 O.3     1  UNL1       -0.4381
      9 C         140.9654  141.3554  163.1940 C.ar    1  UNL1        0.1400
     10 C         139.8290  142.2083  163.6750 C.ar    1  UNL1        0.0348
     11 C         139.6380  142.4443  165.1439 C.ar    1  UNL1        0.0045
     12 C         140.5833  141.8276  166.1318 C.ar    1  UNL1        0.0222
     13 C         141.7197  140.9748  165.6508 C.ar    1  UNL1        0.1004
     14 N         141.9107  140.7387  164.1818 N.ar    1  UNL1       -0.2287
     15 C         140.3923  142.0637  167.6008 C.ar    1  UNL1        0.0358
     16 C         140.5819  143.4383  168.1705 C.ar    1  UNL1        0.0031
     17 C         140.3909  143.6743  169.6393 C.ar    1  UNL1        0.0002
     18 C         140.0102  142.5357  170.5386 C.ar    1  UNL1        0.0031
     19 C         139.8206  141.1612  169.9691 C.ar    1  UNL1        0.0372
     20 C         140.0116  140.9251  168.5001 C.ar    1  UNL1        0.1468
     21 O         139.8220  139.5505  167.9305 O.3     1  UNL1       -0.4045
     22 C         138.4830  139.1391  167.3940 C.3     1  UNL1        0.5753
     23 F         137.1441  138.7277  166.8574 F       1  UNL1       -0.1328
     24 F         137.9271  139.1314  168.7871 F       1  UNL1       -0.1328
     25 F         139.0389  139.1469  166.0008 F       1  UNL1       -0.1328
     26 C         142.8792  138.8017  156.9186 C.2     1  UNL1        0.2459
     27 O         144.2272  139.4347  156.7397 O.2     1  UNL1       -0.2701
     28 N         141.7583  139.5854  157.5343 N.am    1  UNL1       -0.2976
     29 H         140.8735  139.1699  157.6517 H       1  UNL1        0.1499
     30 C         142.1982  134.5509  155.6080 C.ar    1  UNL1        0.0536
     31 C         142.9183  134.8333  156.8932 C.ar    1  UNL1        0.0048
     32 C         143.1453  136.2502  157.3300 C.ar    1  UNL1        0.0047
     33 C         142.6522  137.3848  156.4817 C.ar    1  UNL1        0.0534
     34 C         141.9321  137.1025  155.1965 C.ar    1  UNL1        0.0047
     35 C         141.7051  135.6855  154.7597 C.ar    1  UNL1        0.0048
     36 C         142.9038  129.4771  154.1613 C.ar    1  UNL1        0.0143
     37 C         141.9679  128.3748  153.7626 C.ar    1  UNL1        0.0091
     38 C         140.4895  128.6243  153.7217 C.ar    1  UNL1        0.0698
     39 C         139.9467  129.9761  154.0796 C.ar    1  UNL1        0.0326
     40 C         140.8826  131.0784  154.4784 C.ar    1  UNL1        0.1192
     41 N         140.6415  132.5031  154.8813 N.ar    1  UNL1       -0.2082
     42 C         141.9711  133.1340  155.1711 C.ar    1  UNL1        0.2296
     43 O         143.0339  132.0994  154.9474 O.2     1  UNL1       -0.4349
     44 C         142.3611  130.8289  154.5193 C.ar    1  UNL1        0.1607
     45 C         145.0475  128.4778  153.0863 C.3     1  UNL1        0.0048
     46 C         144.3823  129.2276  154.2022 C.3     1  UNL1        0.0254
     47 C         145.1957  129.7280  155.3591 C.3     1  UNL1        0.0048
     48 C         139.5535  127.5219  153.3229 C.1     1  UNL1        0.1005
     49 N         138.6176  126.4196  152.9241 N.1     1  UNL1       -0.1908
@<TRIPOS>BOND
     1    45    46    1
     2    46    47    1
     3    46    36    1
     4    36    37   ar
     5    37    38   ar
     6    38    48    1
     7    48    49    3
     8    38    39   ar
     9    39    40   ar
    10    40    41   ar
    11    41    42   ar
    12    42    30    1
    13    30    31   ar
    14    31    32   ar
    15    32    33   ar
    16    33    26    1
    17    26    27    2
    18    26    28   am
    19    28     1    1
    20     1     2    1
    21     2     3    1
    22     2     4    1
    23     4     5    1
    24     5     9    1
    25     9    10   ar
    26    10    11   ar
    27    11    12   ar
    28    12    15    1
    29    15    16   ar
    30    16    17   ar
    31    17    18   ar
    32    18    19   ar
    33    19    20   ar
    34    20    21    1
    35    21    22    1
    36    22    23    1
    37    22    24    1
    38    22    25    1
    39    12    13   ar
    40    13    14   ar
    41     5     6   am
    42     6     7    2
    43     6     8    1
    44    33    34   ar
    45    34    35   ar
    46    42    43   ar
    47    43    44   ar
    48    44    36   ar
    49    44    40   ar
    50    35    30   ar
    51     8     2    1
    52    14     9   ar
    53    20    15   ar
    54    28    29    1
@<TRIPOS>MOLECULE
*****
 49 54 0 0 0
SMALL
GASTEIGER

@<TRIPOS>ATOM
      1 C         139.9182  138.8205  156.3487 C.3     1  UNL1        0.1318
      2 C         140.1759  137.4458  155.8066 C.3     1  UNL1        0.1741
      3 C         138.9438  137.7072  154.9920 C.3     1  UNL1        0.0473
      4 C         140.1760  136.1258  155.0942 C.3     1  UNL1        0.1446
      5 N         141.3543  135.3360  155.5819 N.am    1  UNL1       -0.2060
      6 C         142.0824  136.1679  156.5956 C.2     1  UNL1        0.4097
      7 O         143.3214  135.7663  157.3399 O.2     1  UNL1       -0.2258
      8 O         141.3542  137.4719  156.7346 O.3     1  UNL1       -0.4381
      9 C         141.7373  133.9565  155.1344 C.ar    1  UNL1        0.1400
     10 C         142.3686  133.0019  156.1040 C.ar    1  UNL1        0.0348
     11 C         142.7517  131.6223  155.6566 C.ar    1  UNL1        0.0045
     12 C         142.5034  131.1975  154.2396 C.ar    1  UNL1        0.0222
     13 C         141.8721  132.1521  153.2700 C.ar    1  UNL1        0.1004
     14 N         141.4891  133.5316  153.7174 N.ar    1  UNL1       -0.2287
     15 C         142.8865  129.8179  153.7922 C.ar    1  UNL1        0.0358
     16 C         144.0823  129.6210  152.9084 C.ar    1  UNL1        0.0031
     17 C         144.4653  128.2415  152.4611 C.ar    1  UNL1        0.0002
     18 C         143.6525  127.0588  152.8976 C.ar    1  UNL1        0.0031
     19 C         142.4567  127.2556  153.7814 C.ar    1  UNL1        0.0372
     20 C         142.0737  128.6351  154.2288 C.ar    1  UNL1        0.1468
     21 O         140.8778  128.8320  155.1126 O.3     1  UNL1       -0.4045
     22 C         139.6602  127.9754  154.9288 C.3     1  UNL1        0.5753
     23 F         138.4426  127.1189  154.7450 F       1  UNL1       -0.1328
     24 F         139.8560  127.4026  156.3012 F       1  UNL1       -0.1328
     25 F         139.4644  128.5483  153.5564 F       1  UNL1       -0.1328
     26 C         139.1170  139.7055  158.6563 C.2     1  UNL1        0.2459
     27 O         137.7624  139.9883  158.0775 O.2     1  UNL1       -0.2701
     28 N         140.1949  139.1216  157.7919 N.am    1  UNL1       -0.2976
     29 H         141.0840  138.9360  158.1719 H       1  UNL1        0.1499
     30 C         139.9470  140.6088  162.9859 C.ar    1  UNL1        0.0536
     31 C         141.0806  140.5201  162.0076 C.ar    1  UNL1        0.0048
     32 C         140.8039  140.2190  160.5644 C.ar    1  UNL1        0.0047
     33 C         139.3936  140.0066  160.0995 C.ar    1  UNL1        0.0534
     34 C         138.2600  140.0954  161.0778 C.ar    1  UNL1        0.0047
     35 C         138.5368  140.3965  162.5210 C.ar    1  UNL1        0.0048
     36 C         139.7651  140.7267  168.3045 C.ar    1  UNL1        0.0143
     37 C         140.5666  141.4411  169.3519 C.ar    1  UNL1        0.0091
     38 C         141.6904  142.3484  168.9472 C.ar    1  UNL1        0.0698
     39 C         142.0128  142.5413  167.4950 C.ar    1  UNL1        0.0326
     40 C         141.2113  141.8269  166.4475 C.ar    1  UNL1        0.1192
     41 N         141.2955  141.8209  164.9499 N.ar    1  UNL1       -0.2082
     42 C         140.2237  140.9099  164.4291 C.ar    1  UNL1        0.2296
     43 O         139.4770  140.3529  165.6048 O.2     1  UNL1       -0.4349
     44 C         140.0874  140.9196  166.8523 C.ar    1  UNL1        0.1607
     45 C         138.0166  138.9028  167.6995 C.3     1  UNL1        0.0048
     46 C         138.6412  139.8195  168.7092 C.3     1  UNL1        0.0254
     47 C         138.1420  139.8289  170.1237 C.3     1  UNL1        0.0048
     48 C         142.4919  143.0628  169.9948 C.1     1  UNL1        0.1005
     49 N         143.2934  143.7772  171.0422 N.1     1  UNL1       -0.1908
@<TRIPOS>BOND
     1    45    46    1
     2    46    47    1
     3    46    36    1
     4    36    37   ar
     5    37    38   ar
     6    38    48    1
     7    48    49    3
     8    38    39   ar
     9    39    40   ar
    10    40    41   ar
    11    41    42   ar
    12    42    30    1
    13    30    31   ar
    14    31    32   ar
    15    32    33   ar
    16    33    26    1
    17    26    27    2
    18    26    28   am
    19    28     1    1
    20     1     2    1
    21     2     3    1
    22     2     4    1
    23     4     5    1
    24     5     9    1
    25     9    10   ar
    26    10    11   ar
    27    11    12   ar
    28    12    15    1
    29    15    16   ar
    30    16    17   ar
    31    17    18   ar
    32    18    19   ar
    33    19    20   ar
    34    20    21    1
    35    21    22    1
    36    22    23    1
    37    22    24    1
    38    22    25    1
    39    12    13   ar
    40    13    14   ar
    41     5     6   am
    42     6     7    2
    43     6     8    1
    44    33    34   ar
    45    34    35   ar
    46    42    43   ar
    47    43    44   ar
    48    44    36   ar
    49    44    40   ar
    50    35    30   ar
    51     8     2    1
    52    14     9   ar
    53    20    15   ar
    54    28    29    1
@<TRIPOS>MOLECULE
*****
 49 54 0 0 0
SMALL
GASTEIGER

@<TRIPOS>ATOM
      1 C         138.2581  139.7682  155.0728 C.3     1  UNL1        0.1318
      2 C         136.9797  140.4113  154.6233 C.3     1  UNL1        0.1741
      3 C         137.8759  141.1815  153.6994 C.3     1  UNL1        0.0473
      4 C         135.8886  141.2154  153.9807 C.3     1  UNL1        0.1446
      5 N         134.5854  140.8078  154.6013 N.am    1  UNL1       -0.2060
      6 C         134.8710  139.7517  155.6275 C.2     1  UNL1        0.4097
      7 O         133.8550  139.0617  156.4889 O.2     1  UNL1       -0.2258
      8 O         136.3507  139.5066  155.6412 O.3     1  UNL1       -0.4381
      9 C         133.2338  141.3593  154.2564 C.ar    1  UNL1        0.1400
     10 C         132.1658  141.4385  155.3068 C.ar    1  UNL1        0.0348
     11 C         130.8142  141.9900  154.9620 C.ar    1  UNL1        0.0045
     12 C         130.5305  142.4623  153.5668 C.ar    1  UNL1        0.0222
     13 C         131.5984  142.3830  152.5165 C.ar    1  UNL1        0.1004
     14 N         132.9501  141.8315  152.8613 N.ar    1  UNL1       -0.2287
     15 C         129.1788  143.0138  153.2221 C.ar    1  UNL1        0.0358
     16 C         128.9731  144.4972  153.1380 C.ar    1  UNL1        0.0031
     17 C         127.6215  145.0486  152.7932 C.ar    1  UNL1        0.0002
     18 C         126.4754  144.1166  152.5325 C.ar    1  UNL1        0.0031
     19 C         126.6810  142.6332  152.6166 C.ar    1  UNL1        0.0372
     20 C         128.0327  142.0818  152.9613 C.ar    1  UNL1        0.1468
     21 O         128.2383  140.5983  153.0454 O.3     1  UNL1       -0.4045
     22 C         127.5277  139.8011  154.0988 C.3     1  UNL1        0.5753
     23 F         126.8171  139.0040  155.1521 F       1  UNL1       -0.1328
     24 F         127.3390  138.6786  153.1219 F       1  UNL1       -0.1328
     25 F         127.7165  140.9236  155.0756 F       1  UNL1       -0.1328
     26 C         139.1042  140.7943  157.3046 C.2     1  UNL1        0.2459
     27 O         139.3596  142.0982  156.6084 O.2     1  UNL1       -0.2701
     28 N         138.5535  139.6294  156.5368 N.am    1  UNL1       -0.2976
     29 H         138.3859  138.7736  156.9938 H       1  UNL1        0.1499
     30 C         139.9905  140.3780  161.6968 C.ar    1  UNL1        0.0536
     31 C         140.5258  141.5519  160.9317 C.ar    1  UNL1        0.0048
     32 C         140.2304  141.6906  159.4676 C.ar    1  UNL1        0.0047
     33 C         139.3996  140.6555  158.7687 C.ar    1  UNL1        0.0534
     34 C         138.8643  139.4817  159.5338 C.ar    1  UNL1        0.0047
     35 C         139.1598  139.3429  160.9979 C.ar    1  UNL1        0.0048
     36 C         142.3369  139.3166  166.3554 C.ar    1  UNL1        0.0143
     37 C         141.9225  139.4907  167.7864 C.ar    1  UNL1        0.0091
     38 C         140.5821  140.0794  168.1127 C.ar    1  UNL1        0.0698
     39 C         139.6559  140.4940  167.0080 C.ar    1  UNL1        0.0326
     40 C         140.0703  140.3199  165.5769 C.ar    1  UNL1        0.1192
     41 N         139.3751  140.6338  164.2854 N.ar    1  UNL1       -0.2082
     42 C         140.2859  140.2392  163.1609 C.ar    1  UNL1        0.2296
     43 O         141.5441  139.6813  163.7574 O.2     1  UNL1       -0.4349
     44 C         141.4108  139.7312  165.2506 C.ar    1  UNL1        0.1607
     45 C         144.4718  139.2650  164.8756 C.3     1  UNL1        0.0048
     46 C         143.6775  138.7279  166.0291 C.3     1  UNL1        0.0254
     47 C         144.2237  137.6020  166.8563 C.3     1  UNL1        0.0048
     48 C         140.1677  140.2535  169.5439 C.1     1  UNL1        0.1005
     49 N         139.7533  140.4276  170.9749 N.1     1  UNL1       -0.1908
@<TRIPOS>BOND
     1    45    46    1
     2    46    47    1
     3    46    36    1
     4    36    37   ar
     5    37    38   ar
     6    38    48    1
     7    48    49    3
     8    38    39   ar
     9    39    40   ar
    10    40    41   ar
    11    41    42   ar
    12    42    30    1
    13    30    31   ar
    14    31    32   ar
    15    32    33   ar
    16    33    26    1
    17    26    27    2
    18    26    28   am
    19    28     1    1
    20     1     2    1
    21     2     3    1
    22     2     4    1
    23     4     5    1
    24     5     9    1
    25     9    10   ar
    26    10    11   ar
    27    11    12   ar
    28    12    15    1
    29    15    16   ar
    30    16    17   ar
    31    17    18   ar
    32    18    19   ar
    33    19    20   ar
    34    20    21    1
    35    21    22    1
    36    22    23    1
    37    22    24    1
    38    22    25    1
    39    12    13   ar
    40    13    14   ar
    41     5     6   am
    42     6     7    2
    43     6     8    1
    44    33    34   ar
    45    34    35   ar
    46    42    43   ar
    47    43    44   ar
    48    44    36   ar
    49    44    40   ar
    50    35    30   ar
    51     8     2    1
    52    14     9   ar
    53    20    15   ar
    54    28    29    1
@<TRIPOS>MOLECULE
*****
 49 54 0 0 0
SMALL
GASTEIGER

@<TRIPOS>ATOM
      1 C         140.2496  143.2580  156.5615 C.3     1  UNL1        0.1318
      2 C         140.3580  144.6742  156.0792 C.3     1  UNL1        0.1741
      3 C         141.7848  144.5509  156.5254 C.3     1  UNL1        0.0473
      4 C         140.7647  146.0646  155.6901 C.3     1  UNL1        0.1446
      5 N         139.5667  146.7511  155.1043 N.am    1  UNL1       -0.2060
      6 C         138.4195  145.7851  155.1313 C.2     1  UNL1        0.4097
      7 O         137.0276  146.0553  154.6417 O.2     1  UNL1       -0.2258
      8 O         138.9085  144.5014  155.7338 O.3     1  UNL1       -0.4381
      9 C         139.5233  148.1570  154.5830 C.ar    1  UNL1        0.1400
     10 C         140.1014  148.4755  153.2360 C.ar    1  UNL1        0.0348
     11 C         140.0580  149.8813  152.7146 C.ar    1  UNL1        0.0045
     12 C         139.4365  150.9685  153.5402 C.ar    1  UNL1        0.0222
     13 C         138.8584  150.6500  154.8872 C.ar    1  UNL1        0.1004
     14 N         138.9018  149.2443  155.4086 N.ar    1  UNL1       -0.2287
     15 C         139.3932  152.3743  153.0187 C.ar    1  UNL1        0.0358
     16 C         138.0841  153.1011  152.9291 C.ar    1  UNL1        0.0031
     17 C         138.0408  154.5068  152.4077 C.ar    1  UNL1        0.0002
     18 C         139.3066  155.1859  151.9759 C.ar    1  UNL1        0.0031
     19 C         140.6157  154.4593  152.0655 C.ar    1  UNL1        0.0372
     20 C         140.6591  153.0535  152.5869 C.ar    1  UNL1        0.1468
     21 O         141.9683  152.3268  152.6765 O.3     1  UNL1       -0.4045
     22 C         142.9730  152.7174  153.7196 C.3     1  UNL1        0.5753
     23 F         143.9777  153.1080  154.7626 F       1  UNL1       -0.1328
     24 F         142.1347  152.0577  154.7741 F       1  UNL1       -0.1328
     25 F         143.8112  153.3771  152.6650 F       1  UNL1       -0.1328
     26 C         139.2221  142.7114  158.8843 C.2     1  UNL1        0.2459
     27 O         137.8455  142.7880  158.2935 O.2     1  UNL1       -0.2701
     28 N         140.4241  142.9464  158.0184 N.am    1  UNL1       -0.2976
     29 H         141.3276  142.8961  158.4062 H       1  UNL1        0.1499
     30 C         139.7457  141.7767  163.2550 C.ar    1  UNL1        0.0536
     31 C         138.3874  142.1198  162.7189 C.ar    1  UNL1        0.0048
     32 C         138.2130  142.4314  161.2620 C.ar    1  UNL1        0.0047
     33 C         139.3967  142.3999  160.3412 C.ar    1  UNL1        0.0534
     34 C         140.7549  142.0568  160.8773 C.ar    1  UNL1        0.0047
     35 C         140.9294  141.7452  162.3342 C.ar    1  UNL1        0.0048
     36 C         141.6583  141.4314  168.2105 C.ar    1  UNL1        0.0143
     37 C         141.1503  140.8038  169.4746 C.ar    1  UNL1        0.0091
     38 C         139.8321  140.0883  169.4795 C.ar    1  UNL1        0.0698
     39 C         139.0217  140.0003  168.2203 C.ar    1  UNL1        0.0326
     40 C         139.5297  140.6279  166.9562 C.ar    1  UNL1        0.1192
     41 N         138.9563  140.7031  165.5722 N.ar    1  UNL1       -0.2082
     42 C         139.9202  141.4651  164.7119 C.ar    1  UNL1        0.2296
     43 O         141.0894  141.8609  165.5642 O.2     1  UNL1       -0.4349
     44 C         140.8480  141.3434  166.9513 C.ar    1  UNL1        0.1607
     45 C         143.6214  142.5223  166.9043 C.3     1  UNL1        0.0048
     46 C         142.9767  142.1469  168.2056 C.3     1  UNL1        0.0254
     47 C         143.6503  142.4870  169.5020 C.3     1  UNL1        0.0048
     48 C         139.3241  139.4606  170.7437 C.1     1  UNL1        0.1005
     49 N         138.8161  138.8330  172.0079 N.1     1  UNL1       -0.1908
@<TRIPOS>BOND
     1    45    46    1
     2    46    47    1
     3    46    36    1
     4    36    37   ar
     5    37    38   ar
     6    38    48    1
     7    48    49    3
     8    38    39   ar
     9    39    40   ar
    10    40    41   ar
    11    41    42   ar
    12    42    30    1
    13    30    31   ar
    14    31    32   ar
    15    32    33   ar
    16    33    26    1
    17    26    27    2
    18    26    28   am
    19    28     1    1
    20     1     2    1
    21     2     3    1
    22     2     4    1
    23     4     5    1
    24     5     9    1
    25     9    10   ar
    26    10    11   ar
    27    11    12   ar
    28    12    15    1
    29    15    16   ar
    30    16    17   ar
    31    17    18   ar
    32    18    19   ar
    33    19    20   ar
    34    20    21    1
    35    21    22    1
    36    22    23    1
    37    22    24    1
    38    22    25    1
    39    12    13   ar
    40    13    14   ar
    41     5     6   am
    42     6     7    2
    43     6     8    1
    44    33    34   ar
    45    34    35   ar
    46    42    43   ar
    47    43    44   ar
    48    44    36   ar
    49    44    40   ar
    50    35    30   ar
    51     8     2    1
    52    14     9   ar
    53    20    15   ar
    54    28    29    1
