@<TRIPOS>MOLECULE
*****
 34 38 0 0 0
SMALL
GASTEIGER

@<TRIPOS>ATOM
      1 C         139.6416  142.4437  161.7305 C.ar    1  UNL1        0.0329
      2 C         138.1472  142.5491  161.6545 C.ar    1  UNL1        0.1001
      3 N         137.3231  142.4382  162.9028 N.ar    1  UNL1       -0.2420
      4 C         137.9933  142.2220  164.2272 C.ar    1  UNL1        0.1078
      5 C         139.4877  142.1166  164.3033 C.ar    1  UNL1        0.1207
      6 C         140.3118  142.2275  163.0549 C.ar    1  UNL1        0.0583
      7 C         140.1579  141.9004  165.6277 C.2     1  UNL1        0.3780
      8 N         140.7397  140.6089  166.1210 N.2     1  UNL1       -0.0308
      9 C         141.3053  140.8480  167.4895 C.2     1  UNL1        0.2318
     10 C         142.0018  139.9410  168.4602 C.2     1  UNL1        0.0456
     11 C         142.4661  140.4735  169.7834 C.2     1  UNL1       -0.0219
     12 C         143.1627  139.5665  170.7542 C.3     1  UNL1        0.0308
     13 C         142.2339  141.9129  170.1359 C.2     1  UNL1       -0.0214
     14 C         141.5374  142.8198  169.1652 C.3     1  UNL1        0.1034
     15 C         141.0731  142.2874  167.8420 C.2     1  UNL1        0.2178
     16 N         140.3639  142.9378  166.6914 N.2     1  UNL1       -0.0346
     17 N         141.8062  142.1222  163.1309 N.pl3   1  UNL1       -0.3071
     18 C         142.4741  140.7907  162.9548 C.3     1  UNL1        0.0921
     19 C         143.9684  140.6853  163.0308 C.3     1  UNL1        0.0369
     20 C         144.7949  141.9114  163.2829 C.3     1  UNL1        0.0542
     21 N         146.2893  141.8060  163.3589 N.3     1  UNL1       -0.3221
     22 C         144.1270  143.2429  163.4590 C.3     1  UNL1        0.0369
     23 C         142.6326  143.3483  163.3830 C.3     1  UNL1        0.0921
     24 H         146.5693  140.8355  163.2176 H       1  UNL1        0.1188
     25 H         146.6062  142.1213  164.2757 H       1  UNL1        0.1188
     26 C         141.8524  143.9937  158.8219 C.ar    1  UNL1        0.1410
     27 C         142.1142  142.7764  157.9853 C.ar    1  UNL1        0.0665
     28 C         141.5518  141.4482  158.3972 C.ar    1  UNL1        0.1432
     29 F         141.8135  140.2310  157.5607 F       1  UNL1       -0.2041
     30 C         140.7275  141.3374  159.6456 C.ar    1  UNL1        0.0299
     31 C         140.4658  142.5546  160.4821 C.ar    1  UNL1        0.0079
     32 C         141.0282  143.8828  160.0702 C.ar    1  UNL1        0.0371
     33 C         142.0411  145.9160  157.0843 C.3     1  UNL1        0.2525
     34 O         142.4148  145.3219  158.4100 O.3     1  UNL1       -0.4714
@<TRIPOS>BOND
     1    33    34    1
     2    34    26    1
     3    26    27   ar
     4    27    28   ar
     5    28    29    1
     6    28    30   ar
     7    30    31   ar
     8    31     1    1
     9     1     2   ar
    10     2     3   ar
    11     3     4   ar
    12     4     5   ar
    13     5     7    1
    14     7     8    2
    15     8     9    1
    16     9    10    2
    17    10    11    1
    18    11    12    1
    19    11    13    2
    20    13    14    1
    21    14    15    1
    22    15    16    2
    23     5     6   ar
    24     6    17    1
    25    17    18    1
    26    18    19    1
    27    19    20    1
    28    20    21    1
    29    20    22    1
    30    22    23    1
    31    31    32   ar
    32    32    26   ar
    33     6     1   ar
    34    23    17    1
    35    16     7    1
    36    15     9    1
    37    21    24    1
    38    21    25    1
@<TRIPOS>MOLECULE
*****
 34 38 0 0 0
SMALL
GASTEIGER

@<TRIPOS>ATOM
      1 C         140.6884  138.8004  164.9538 C.ar    1  UNL1        0.0329
      2 C         141.0674  137.3752  164.6795 C.ar    1  UNL1        0.1001
      3 N         141.1141  136.8699  163.2680 N.ar    1  UNL1       -0.2420
      4 C         140.7817  137.7898  162.1307 C.ar    1  UNL1        0.1078
      5 C         140.4026  139.2149  162.4049 C.ar    1  UNL1        0.1207
      6 C         140.3559  139.7202  163.8165 C.ar    1  UNL1        0.0583
      7 C         140.0702  140.1347  161.2677 C.2     1  UNL1        0.3780
      8 N         138.8483  140.0593  160.4009 N.2     1  UNL1       -0.0308
      9 C         138.9243  141.1694  159.3950 C.2     1  UNL1        0.2318
     10 C         138.0020  141.5852  158.2875 C.2     1  UNL1        0.0456
     11 C         138.3485  142.7626  157.4252 C.2     1  UNL1       -0.0219
     12 C         137.4263  143.1784  156.3177 C.3     1  UNL1        0.0308
     13 C         139.6174  143.5242  157.6703 C.2     1  UNL1       -0.0214
     14 C         140.5396  143.1084  158.7778 C.3     1  UNL1        0.1034
     15 C         140.1931  141.9310  159.6401 C.2     1  UNL1        0.2178
     16 N         140.9013  141.2916  160.7975 N.2     1  UNL1       -0.0346
     17 N         139.9769  141.1454  164.0908 N.pl3   1  UNL1       -0.3071
     18 C         138.5317  141.5252  164.2219 C.3     1  UNL1        0.0921
     19 C         138.1526  142.9503  164.4962 C.3     1  UNL1        0.0369
     20 C         139.2187  143.9957  164.6394 C.3     1  UNL1        0.0542
     21 N         138.8396  145.4209  164.9137 N.3     1  UNL1       -0.3221
     22 C         140.6639  143.6160  164.5083 C.3     1  UNL1        0.0369
     23 C         141.0430  142.1908  164.2340 C.3     1  UNL1        0.0921
     24 H         137.8241  145.4975  164.9713 H       1  UNL1        0.1188
     25 H         139.1831  146.0153  164.1593 H       1  UNL1        0.1188
     26 C         141.8483  140.3007  168.4400 C.ar    1  UNL1        0.1410
     27 C         140.5484  140.3165  169.1884 C.ar    1  UNL1        0.0665
     28 C         139.2952  139.8269  168.5253 C.ar    1  UNL1        0.1432
     29 F         137.9953  139.8426  169.2737 F       1  UNL1       -0.2041
     30 C         139.3418  139.3215  167.1137 C.ar    1  UNL1        0.0299
     31 C         140.6417  139.3058  166.3653 C.ar    1  UNL1        0.0079
     32 C         141.8949  139.7954  167.0285 C.ar    1  UNL1        0.0371
     33 C         143.4044  142.2590  169.1428 C.3     1  UNL1        0.2525
     34 O         143.1015  140.7904  169.1031 O.3     1  UNL1       -0.4714
@<TRIPOS>BOND
     1    33    34    1
     2    34    26    1
     3    26    27   ar
     4    27    28   ar
     5    28    29    1
     6    28    30   ar
     7    30    31   ar
     8    31     1    1
     9     1     2   ar
    10     2     3   ar
    11     3     4   ar
    12     4     5   ar
    13     5     7    1
    14     7     8    2
    15     8     9    1
    16     9    10    2
    17    10    11    1
    18    11    12    1
    19    11    13    2
    20    13    14    1
    21    14    15    1
    22    15    16    2
    23     5     6   ar
    24     6    17    1
    25    17    18    1
    26    18    19    1
    27    19    20    1
    28    20    21    1
    29    20    22    1
    30    22    23    1
    31    31    32   ar
    32    32    26   ar
    33     6     1   ar
    34    23    17    1
    35    16     7    1
    36    15     9    1
    37    21    24    1
    38    21    25    1
@<TRIPOS>MOLECULE
*****
 34 38 0 0 0
SMALL
GASTEIGER

@<TRIPOS>ATOM
      1 C         142.6404  140.4788  164.9638 C.ar    1  UNL1        0.0329
      2 C         143.8665  139.6323  165.1370 C.ar    1  UNL1        0.1001
      3 N         144.7620  139.3605  163.9648 N.ar    1  UNL1       -0.2420
      4 C         144.4315  139.9352  162.6193 C.ar    1  UNL1        0.1078
      5 C         143.2054  140.7817  162.4460 C.ar    1  UNL1        0.1207
      6 C         142.3099  141.0535  163.6182 C.ar    1  UNL1        0.0583
      7 C         142.8748  141.3564  161.1005 C.2     1  UNL1        0.3780
      8 N         143.2824  142.7086  160.5950 N.2     1  UNL1       -0.0308
      9 C         142.7381  142.8678  159.2063 C.2     1  UNL1        0.2318
     10 C         142.8238  143.9924  158.2175 C.2     1  UNL1        0.0456
     11 C         142.1655  143.8632  156.8759 C.2     1  UNL1       -0.0219
     12 C         142.2512  144.9878  155.8869 C.3     1  UNL1        0.0308
     13 C         141.4215  142.6094  156.5231 C.2     1  UNL1       -0.0214
     14 C         141.3358  141.4848  157.5120 C.3     1  UNL1        0.1034
     15 C         141.9941  141.6140  158.8536 C.2     1  UNL1        0.2178
     16 N         142.0786  140.6799  160.0242 N.2     1  UNL1       -0.0346
     17 N         141.0837  141.9001  163.4450 N.pl3   1  UNL1       -0.3071
     18 C         141.1593  143.3826  163.6604 C.3     1  UNL1        0.0921
     19 C         139.9333  144.2292  163.4871 C.3     1  UNL1        0.0369
     20 C         138.6315  143.5932  163.0985 C.3     1  UNL1        0.0542
     21 N         137.4054  144.4397  162.9253 N.3     1  UNL1       -0.3221
     22 C         138.5558  142.1107  162.8831 C.3     1  UNL1        0.0369
     23 C         139.7820  141.2641  163.0564 C.3     1  UNL1        0.0921
     24 H         137.6373  145.4158  163.1096 H       1  UNL1        0.1188
     25 H         136.6849  144.1323  163.5785 H       1  UNL1        0.1188
     26 C         139.6939  140.1104  167.5966 C.ar    1  UNL1        0.1410
     27 C         139.9537  141.2943  168.4805 C.ar    1  UNL1        0.0665
     28 C         141.1091  142.2063  168.1920 C.ar    1  UNL1        0.1432
     29 F         141.3690  143.3901  169.0757 F       1  UNL1       -0.2041
     30 C         142.0047  141.9344  167.0197 C.ar    1  UNL1        0.0299
     31 C         141.7449  140.7506  166.1360 C.ar    1  UNL1        0.0079
     32 C         140.5894  139.8386  166.4245 C.ar    1  UNL1        0.0371
     33 C         137.8015  138.5413  166.7558 C.3     1  UNL1        0.2525
     34 O         138.5384  139.1984  167.8851 O.3     1  UNL1       -0.4714
@<TRIPOS>BOND
     1    33    34    1
     2    34    26    1
     3    26    27   ar
     4    27    28   ar
     5    28    29    1
     6    28    30   ar
     7    30    31   ar
     8    31     1    1
     9     1     2   ar
    10     2     3   ar
    11     3     4   ar
    12     4     5   ar
    13     5     7    1
    14     7     8    2
    15     8     9    1
    16     9    10    2
    17    10    11    1
    18    11    12    1
    19    11    13    2
    20    13    14    1
    21    14    15    1
    22    15    16    2
    23     5     6   ar
    24     6    17    1
    25    17    18    1
    26    18    19    1
    27    19    20    1
    28    20    21    1
    29    20    22    1
    30    22    23    1
    31    31    32   ar
    32    32    26   ar
    33     6     1   ar
    34    23    17    1
    35    16     7    1
    36    15     9    1
    37    21    24    1
    38    21    25    1
@<TRIPOS>MOLECULE
*****
 34 38 0 0 0
SMALL
GASTEIGER

@<TRIPOS>ATOM
      1 C         140.0975  139.5042  160.9185 C.ar    1  UNL1        0.0329
      2 C         138.6971  139.0034  160.7235 C.ar    1  UNL1        0.1001
      3 N         137.7858  138.8458  161.9044 N.ar    1  UNL1       -0.2420
      4 C         138.2748  139.1891  163.2803 C.ar    1  UNL1        0.1078
      5 C         139.6752  139.6899  163.4752 C.ar    1  UNL1        0.1207
      6 C         140.5865  139.8475  162.2943 C.ar    1  UNL1        0.0583
      7 C         140.1643  140.0332  164.8511 C.2     1  UNL1        0.3780
      8 N         141.0640  139.1882  165.7033 N.2     1  UNL1       -0.0308
      9 C         141.2953  139.9145  166.9953 C.2     1  UNL1        0.2318
     10 C         142.0972  139.5648  168.2136 C.2     1  UNL1        0.0456
     11 C         142.1423  140.5091  169.3782 C.2     1  UNL1       -0.0219
     12 C         142.9443  140.1594  170.5967 C.3     1  UNL1        0.0308
     13 C         141.3855  141.8030  169.3244 C.2     1  UNL1       -0.0214
     14 C         140.5835  142.1527  168.1060 C.3     1  UNL1        0.1034
     15 C         140.5384  141.2084  166.9415 C.2     1  UNL1        0.2178
     16 N         139.8394  141.2818  165.6163 N.2     1  UNL1       -0.0346
     17 N         141.9870  140.3484  162.4892 N.pl3   1  UNL1       -0.3071
     18 C         142.2588  141.8232  162.5178 C.3     1  UNL1        0.0921
     19 C         143.6592  142.3241  162.7127 C.3     1  UNL1        0.0369
     20 C         144.7878  141.3501  162.8790 C.3     1  UNL1        0.0542
     21 N         146.1882  141.8510  163.0739 N.3     1  UNL1       -0.3221
     22 C         144.5160  139.8752  162.8504 C.3     1  UNL1        0.0369
     23 C         143.1155  139.3744  162.6555 C.3     1  UNL1        0.0921
     24 H         146.1885  142.8710  163.0671 H       1  UNL1        0.1188
     25 H         146.7809  141.5058  162.3190 H       1  UNL1        0.1188
     26 C         142.5973  138.6181  157.9663 C.ar    1  UNL1        0.1410
     27 C         142.8316  139.9769  157.3757 C.ar    1  UNL1        0.0665
     28 C         142.1545  141.1782  157.9660 C.ar    1  UNL1        0.1432
     29 F         142.3888  142.5369  157.3755 F       1  UNL1       -0.2041
     30 C         141.2431  141.0206  159.1470 C.ar    1  UNL1        0.0299
     31 C         141.0089  139.6618  159.7375 C.ar    1  UNL1        0.0079
     32 C         141.6860  138.4605  159.1472 C.ar    1  UNL1        0.0371
     33 C         142.4561  136.3272  156.7489 C.3     1  UNL1        0.2525
     34 O         143.2745  137.4168  157.3759 O.3     1  UNL1       -0.4714
@<TRIPOS>BOND
     1    33    34    1
     2    34    26    1
     3    26    27   ar
     4    27    28   ar
     5    28    29    1
     6    28    30   ar
     7    30    31   ar
     8    31     1    1
     9     1     2   ar
    10     2     3   ar
    11     3     4   ar
    12     4     5   ar
    13     5     7    1
    14     7     8    2
    15     8     9    1
    16     9    10    2
    17    10    11    1
    18    11    12    1
    19    11    13    2
    20    13    14    1
    21    14    15    1
    22    15    16    2
    23     5     6   ar
    24     6    17    1
    25    17    18    1
    26    18    19    1
    27    19    20    1
    28    20    21    1
    29    20    22    1
    30    22    23    1
    31    31    32   ar
    32    32    26   ar
    33     6     1   ar
    34    23    17    1
    35    16     7    1
    36    15     9    1
    37    21    24    1
    38    21    25    1
@<TRIPOS>MOLECULE
*****
 34 38 0 0 0
SMALL
GASTEIGER

@<TRIPOS>ATOM
      1 C         143.3841  141.6943  161.5048 C.ar    1  UNL1        0.0329
      2 C         144.8809  141.7708  161.4456 C.ar    1  UNL1        0.1001
      3 N         145.6823  141.7775  162.7135 N.ar    1  UNL1       -0.2420
      4 C         144.9868  141.7077  164.0407 C.ar    1  UNL1        0.1078
      5 C         143.4899  141.6312  164.1000 C.ar    1  UNL1        0.1207
      6 C         142.6886  141.6244  162.8320 C.ar    1  UNL1        0.0583
      7 C         142.7944  141.5614  165.4271 C.2     1  UNL1        0.3780
      8 N         142.0893  142.6934  166.1137 N.2     1  UNL1       -0.0308
      9 C         141.5410  142.1789  167.4117 C.2     1  UNL1        0.2318
     10 C         140.7556  142.8434  168.5032 C.2     1  UNL1        0.0456
     11 C         140.3365  142.0580  169.7104 C.2     1  UNL1       -0.0219
     12 C         139.5510  142.7225  170.8020 C.3     1  UNL1        0.0308
     13 C         140.7028  140.6080  169.8260 C.2     1  UNL1       -0.0214
     14 C         141.4882  139.9435  168.7345 C.3     1  UNL1        0.1034
     15 C         141.9073  140.7289  167.5273 C.2     1  UNL1        0.2178
     16 N         142.6820  140.3473  166.3008 N.2     1  UNL1       -0.0346
     17 N         141.1916  141.5479  162.8912 N.pl3   1  UNL1       -0.3071
     18 C         140.5101  140.2124  162.9345 C.3     1  UNL1        0.0921
     19 C         139.0133  140.1358  162.9937 C.3     1  UNL1        0.0369
     20 C         138.1979  141.3947  163.0096 C.3     1  UNL1        0.0542
     21 N         136.7010  141.3181  163.0688 N.3     1  UNL1       -0.3221
     22 C         138.8794  142.7303  162.9663 C.3     1  UNL1        0.0369
     23 C         140.3763  142.8068  162.9071 C.3     1  UNL1        0.0921
     24 H         136.4113  140.3404  163.0923 H       1  UNL1        0.1188
     25 H         136.3046  141.7705  162.2450 H       1  UNL1        0.1188
     26 C         141.3232  142.9749  158.3643 C.ar    1  UNL1        0.1410
     27 C         140.9798  141.6741  157.7009 C.ar    1  UNL1        0.0665
     28 C         141.4378  140.3800  158.3055 C.ar    1  UNL1        0.1432
     29 F         141.0944  139.0792  157.6422 F       1  UNL1       -0.2041
     30 C         142.2392  140.3867  159.5735 C.ar    1  UNL1        0.0299
     31 C         142.5826  141.6875  160.2368 C.ar    1  UNL1        0.0079
     32 C         142.1246  142.9816  159.6322 C.ar    1  UNL1        0.0371
     33 C         140.3708  145.3761  158.6430 C.3     1  UNL1        0.2525
     34 O         140.8652  144.2690  157.7597 O.3     1  UNL1       -0.4714
@<TRIPOS>BOND
     1    33    34    1
     2    34    26    1
     3    26    27   ar
     4    27    28   ar
     5    28    29    1
     6    28    30   ar
     7    30    31   ar
     8    31     1    1
     9     1     2   ar
    10     2     3   ar
    11     3     4   ar
    12     4     5   ar
    13     5     7    1
    14     7     8    2
    15     8     9    1
    16     9    10    2
    17    10    11    1
    18    11    12    1
    19    11    13    2
    20    13    14    1
    21    14    15    1
    22    15    16    2
    23     5     6   ar
    24     6    17    1
    25    17    18    1
    26    18    19    1
    27    19    20    1
    28    20    21    1
    29    20    22    1
    30    22    23    1
    31    31    32   ar
    32    32    26   ar
    33     6     1   ar
    34    23    17    1
    35    16     7    1
    36    15     9    1
    37    21    24    1
    38    21    25    1
@<TRIPOS>MOLECULE
*****
 34 38 0 0 0
SMALL
GASTEIGER

@<TRIPOS>ATOM
      1 C         142.7965  140.8583  161.1819 C.ar    1  UNL1        0.0329
      2 C         143.9873  139.9501  161.0982 C.ar    1  UNL1        0.1001
      3 N         144.4964  139.2653  162.3318 N.ar    1  UNL1       -0.2420
      4 C         143.8148  139.4889  163.6492 C.ar    1  UNL1        0.1078
      5 C         142.6240  140.3972  163.7329 C.ar    1  UNL1        0.1207
      6 C         142.1149  141.0819  162.4992 C.ar    1  UNL1        0.0583
      7 C         141.9423  140.6208  165.0502 C.2     1  UNL1        0.3780
      8 N         142.1108  141.8179  165.9381 N.2     1  UNL1       -0.0308
      9 C         141.2451  141.6235  167.1476 C.2     1  UNL1        0.2318
     10 C         141.0066  142.4758  168.3586 C.2     1  UNL1        0.0456
     11 C         140.0645  142.0108  169.4292 C.2     1  UNL1       -0.0219
     12 C         139.8259  142.8631  170.6403 C.3     1  UNL1        0.0308
     13 C         139.3610  140.6934  169.2888 C.2     1  UNL1       -0.0214
     14 C         139.5996  139.8412  168.0777 C.3     1  UNL1        0.1034
     15 C         140.5416  140.3062  167.0072 C.2     1  UNL1        0.2178
     16 N         140.9725  139.6865  165.7109 N.2     1  UNL1       -0.0346
     17 N         140.9241  141.9903  162.5828 N.pl3   1  UNL1       -0.3071
     18 C         139.5455  141.4420  162.3614 C.3     1  UNL1        0.0921
     19 C         138.3548  142.3502  162.4450 C.3     1  UNL1        0.0369
     20 C         138.5425  143.8069  162.7501 C.3     1  UNL1        0.0542
     21 N         137.3517  144.7152  162.8337 N.3     1  UNL1       -0.3221
     22 C         139.9210  144.3552  162.9715 C.3     1  UNL1        0.0369
     23 C         141.1118  143.4468  162.8879 C.3     1  UNL1        0.0921
     24 H         136.5020  144.1789  162.6578 H       1  UNL1        0.1188
     25 H         137.4380  145.4541  162.1359 H       1  UNL1        0.1188
     26 C         142.2313  143.6202  158.3885 C.ar    1  UNL1        0.1410
     27 C         141.2691  142.9127  157.4809 C.ar    1  UNL1        0.0665
     28 C         140.8161  141.5204  157.8069 C.ar    1  UNL1        0.1432
     29 F         139.8540  140.8128  156.8994 F       1  UNL1       -0.2041
     30 C         141.3253  140.8356  159.0406 C.ar    1  UNL1        0.0299
     31 C         142.2874  141.5431  159.9482 C.ar    1  UNL1        0.0079
     32 C         142.7404  142.9354  159.6221 C.ar    1  UNL1        0.0371
     33 C         141.8889  145.8564  157.1110 C.3     1  UNL1        0.2525
     34 O         142.6843  145.0125  158.0625 O.3     1  UNL1       -0.4714
@<TRIPOS>BOND
     1    33    34    1
     2    34    26    1
     3    26    27   ar
     4    27    28   ar
     5    28    29    1
     6    28    30   ar
     7    30    31   ar
     8    31     1    1
     9     1     2   ar
    10     2     3   ar
    11     3     4   ar
    12     4     5   ar
    13     5     7    1
    14     7     8    2
    15     8     9    1
    16     9    10    2
    17    10    11    1
    18    11    12    1
    19    11    13    2
    20    13    14    1
    21    14    15    1
    22    15    16    2
    23     5     6   ar
    24     6    17    1
    25    17    18    1
    26    18    19    1
    27    19    20    1
    28    20    21    1
    29    20    22    1
    30    22    23    1
    31    31    32   ar
    32    32    26   ar
    33     6     1   ar
    34    23    17    1
    35    16     7    1
    36    15     9    1
    37    21    24    1
    38    21    25    1
@<TRIPOS>MOLECULE
*****
 34 38 0 0 0
SMALL
GASTEIGER

@<TRIPOS>ATOM
      1 C         139.0579  141.6365  163.4649 C.ar    1  UNL1        0.0329
      2 C         137.7861  142.2683  162.9818 C.ar    1  UNL1        0.1001
      3 N         137.6788  142.7498  161.5653 N.ar    1  UNL1       -0.2420
      4 C         138.8434  142.5995  160.6318 C.ar    1  UNL1        0.1078
      5 C         140.1152  141.9678  161.1149 C.ar    1  UNL1        0.1207
      6 C         140.2224  141.4863  162.5314 C.ar    1  UNL1        0.0583
      7 C         141.2797  141.8176  160.1814 C.2     1  UNL1        0.3780
      8 N         142.4266  142.7741  160.0415 N.2     1  UNL1       -0.0308
      9 C         143.3575  142.2321  158.9976 C.2     1  UNL1        0.2318
     10 C         144.6518  142.7478  158.4418 C.2     1  UNL1        0.0456
     11 C         145.3744  141.9719  157.3808 C.2     1  UNL1       -0.0219
     12 C         146.6688  142.4876  156.8250 C.3     1  UNL1        0.0308
     13 C         144.8028  140.6804  156.8756 C.2     1  UNL1       -0.0214
     14 C         143.5086  140.1647  157.4314 C.3     1  UNL1        0.1034
     15 C         142.7859  140.9406  158.4924 C.2     1  UNL1        0.2178
     16 N         141.5017  140.6844  159.2240 N.2     1  UNL1       -0.0346
     17 N         141.4943  140.8545  163.0145 N.pl3   1  UNL1       -0.3071
     18 C         142.6055  141.7135  163.5410 C.3     1  UNL1        0.0921
     19 C         143.8773  141.0818  164.0242 C.3     1  UNL1        0.0369
     20 C         144.0379  139.5910  163.9808 C.3     1  UNL1        0.0542
     21 N         145.3097  138.9593  164.4640 N.3     1  UNL1       -0.3221
     22 C         142.9266  138.7320  163.4543 C.3     1  UNL1        0.0369
     23 C         141.6548  139.3638  162.9712 C.3     1  UNL1        0.0921
     24 H         145.9499  139.6859  164.7844 H       1  UNL1        0.1188
     25 H         145.7416  138.4380  163.7010 H       1  UNL1        0.1188
     26 C         140.0210  141.4870  167.3120 C.ar    1  UNL1        0.1410
     27 C         139.3799  140.1920  167.7146 C.ar    1  UNL1        0.0665
     28 C         138.6315  139.3785  166.7006 C.ar    1  UNL1        0.1432
     29 F         137.9904  138.0835  167.1032 F       1  UNL1       -0.2041
     30 C         138.5242  139.8600  165.2840 C.ar    1  UNL1        0.0299
     31 C         139.1652  141.1550  164.8815 C.ar    1  UNL1        0.0079
     32 C         139.9137  141.9684  165.8954 C.ar    1  UNL1        0.0371
     33 C         140.2454  142.4199  169.7264 C.3     1  UNL1        0.2525
     34 O         140.7694  142.3004  168.3259 O.3     1  UNL1       -0.4714
@<TRIPOS>BOND
     1    33    34    1
     2    34    26    1
     3    26    27   ar
     4    27    28   ar
     5    28    29    1
     6    28    30   ar
     7    30    31   ar
     8    31     1    1
     9     1     2   ar
    10     2     3   ar
    11     3     4   ar
    12     4     5   ar
    13     5     7    1
    14     7     8    2
    15     8     9    1
    16     9    10    2
    17    10    11    1
    18    11    12    1
    19    11    13    2
    20    13    14    1
    21    14    15    1
    22    15    16    2
    23     5     6   ar
    24     6    17    1
    25    17    18    1
    26    18    19    1
    27    19    20    1
    28    20    21    1
    29    20    22    1
    30    22    23    1
    31    31    32   ar
    32    32    26   ar
    33     6     1   ar
    34    23    17    1
    35    16     7    1
    36    15     9    1
    37    21    24    1
    38    21    25    1
@<TRIPOS>MOLECULE
*****
 34 38 0 0 0
SMALL
GASTEIGER

@<TRIPOS>ATOM
      1 C         139.5242  142.4485  163.9007 C.ar    1  UNL1        0.0329
      2 C         138.2878  143.1993  163.5040 C.ar    1  UNL1        0.1001
      3 N         138.1002  143.6369  162.0816 N.ar    1  UNL1       -0.2420
      4 C         139.1490  143.3236  161.0560 C.ar    1  UNL1        0.1078
      5 C         140.3854  142.5728  161.4527 C.ar    1  UNL1        0.1207
      6 C         140.5730  142.1352  162.8751 C.ar    1  UNL1        0.0583
      7 C         141.4342  142.2596  160.4271 C.2     1  UNL1        0.3780
      8 N         141.3960  141.1269  159.4445 N.2     1  UNL1       -0.0308
      9 C         142.6435  141.1913  158.6141 C.2     1  UNL1        0.2318
     10 C         143.1472  140.3338  157.4912 C.2     1  UNL1        0.0456
     11 C         144.4601  140.6488  156.8377 C.2     1  UNL1       -0.0219
     12 C         144.9638  139.7912  155.7147 C.3     1  UNL1        0.0308
     13 C         145.2693  141.8213  157.3071 C.2     1  UNL1       -0.0214
     14 C         144.7657  142.6788  158.4301 C.3     1  UNL1        0.1034
     15 C         143.4528  142.3638  159.0835 C.2     1  UNL1        0.2178
     16 N         142.7054  143.0240  160.2040 N.2     1  UNL1       -0.0346
     17 N         141.8095  141.3843  163.2720 N.pl3   1  UNL1       -0.3071
     18 C         143.0289  142.1324  163.7229 C.3     1  UNL1        0.0921
     19 C         144.2653  141.3817  164.1197 C.3     1  UNL1        0.0369
     20 C         144.2824  139.8827  164.0657 C.3     1  UNL1        0.0542
     21 N         145.5188  139.1319  164.4625 N.3     1  UNL1       -0.3221
     22 C         143.0630  139.1346  163.6147 C.3     1  UNL1        0.0369
     23 C         141.8265  139.8854  163.2179 C.3     1  UNL1        0.0921
     24 H         146.2441  139.7935  164.7394 H       1  UNL1        0.1188
     25 H         145.8481  138.5773  163.6723 H       1  UNL1        0.1188
     26 C         139.2618  140.3050  167.2305 C.ar    1  UNL1        0.1410
     27 C         140.0872  141.1355  168.1681 C.ar    1  UNL1        0.0665
     28 C         140.7250  142.4037  167.6832 C.ar    1  UNL1        0.1432
     29 F         141.5504  143.2341  168.6207 F       1  UNL1       -0.2041
     30 C         140.5373  142.8413  166.2607 C.ar    1  UNL1        0.0299
     31 C         139.7119  142.0108  165.3232 C.ar    1  UNL1        0.0079
     32 C         139.0741  140.7427  165.8081 C.ar    1  UNL1        0.0371
     33 C         137.7240  138.2544  166.8054 C.3     1  UNL1        0.2525
     34 O         138.6240  139.0369  167.7153 O.3     1  UNL1       -0.4714
@<TRIPOS>BOND
     1    33    34    1
     2    34    26    1
     3    26    27   ar
     4    27    28   ar
     5    28    29    1
     6    28    30   ar
     7    30    31   ar
     8    31     1    1
     9     1     2   ar
    10     2     3   ar
    11     3     4   ar
    12     4     5   ar
    13     5     7    1
    14     7     8    2
    15     8     9    1
    16     9    10    2
    17    10    11    1
    18    11    12    1
    19    11    13    2
    20    13    14    1
    21    14    15    1
    22    15    16    2
    23     5     6   ar
    24     6    17    1
    25    17    18    1
    26    18    19    1
    27    19    20    1
    28    20    21    1
    29    20    22    1
    30    22    23    1
    31    31    32   ar
    32    32    26   ar
    33     6     1   ar
    34    23    17    1
    35    16     7    1
    36    15     9    1
    37    21    24    1
    38    21    25    1
@<TRIPOS>MOLECULE
*****
 34 38 0 0 0
SMALL
GASTEIGER

@<TRIPOS>ATOM
      1 C         141.2339  139.4628  160.4663 C.ar    1  UNL1        0.0329
      2 C         142.1234  138.2693  160.2811 C.ar    1  UNL1        0.1001
      3 N         142.7329  137.5957  161.4747 N.ar    1  UNL1       -0.2420
      4 C         142.4531  138.1157  162.8536 C.ar    1  UNL1        0.1078
      5 C         141.5636  139.3092  163.0388 C.ar    1  UNL1        0.1207
      6 C         140.9541  139.9828  161.8452 C.ar    1  UNL1        0.0583
      7 C         141.2837  139.8292  164.4177 C.2     1  UNL1        0.3780
      8 N         141.9265  141.0245  165.0565 N.2     1  UNL1       -0.0308
      9 C         141.3519  141.1793  166.4335 C.2     1  UNL1        0.2318
     10 C         141.6085  142.1794  167.5215 C.2     1  UNL1        0.0456
     11 C         140.8672  142.0799  168.8217 C.2     1  UNL1       -0.0219
     12 C         141.1237  143.0801  169.9098 C.3     1  UNL1        0.0308
     13 C         139.8694  140.9802  169.0339 C.2     1  UNL1       -0.0214
     14 C         139.6128  139.9800  167.9459 C.3     1  UNL1        0.1034
     15 C         140.3541  140.0796  166.6457 C.2     1  UNL1        0.2178
     16 N         140.3120  139.2452  165.3998 N.2     1  UNL1       -0.0346
     17 N         140.0646  141.1764  162.0304 N.pl3   1  UNL1       -0.3071
     18 C         140.6367  142.5598  161.9370 C.3     1  UNL1        0.0921
     19 C         139.7473  143.7533  162.1222 C.3     1  UNL1        0.0369
     20 C         138.2857  143.5635  162.4009 C.3     1  UNL1        0.0542
     21 N         137.3963  144.7570  162.5861 N.3     1  UNL1       -0.3221
     22 C         137.7135  142.1801  162.4943 C.3     1  UNL1        0.0369
     23 C         138.6030  140.9865  162.3091 C.3     1  UNL1        0.0921
     24 H         137.9475  145.6099  162.4903 H       1  UNL1        0.1188
     25 H         136.9754  144.7266  163.5147 H       1  UNL1        0.1188
     26 C         138.5911  140.5244  157.7026 C.ar    1  UNL1        0.1410
     27 C         139.4051  141.4835  156.8855 C.ar    1  UNL1        0.0665
     28 C         140.8287  141.7690  157.2620 C.ar    1  UNL1        0.1432
     29 F         141.6428  142.7280  156.4449 F       1  UNL1       -0.2041
     30 C         141.4384  141.0954  158.4556 C.ar    1  UNL1        0.0299
     31 C         140.6243  140.1364  159.2727 C.ar    1  UNL1        0.0079
     32 C         139.2007  139.8509  158.8962 C.ar    1  UNL1        0.0371
     33 C         136.4347  141.1681  156.4042 C.3     1  UNL1        0.2525
     34 O         137.1674  140.2390  157.3261 O.3     1  UNL1       -0.4714
@<TRIPOS>BOND
     1    33    34    1
     2    34    26    1
     3    26    27   ar
     4    27    28   ar
     5    28    29    1
     6    28    30   ar
     7    30    31   ar
     8    31     1    1
     9     1     2   ar
    10     2     3   ar
    11     3     4   ar
    12     4     5   ar
    13     5     7    1
    14     7     8    2
    15     8     9    1
    16     9    10    2
    17    10    11    1
    18    11    12    1
    19    11    13    2
    20    13    14    1
    21    14    15    1
    22    15    16    2
    23     5     6   ar
    24     6    17    1
    25    17    18    1
    26    18    19    1
    27    19    20    1
    28    20    21    1
    29    20    22    1
    30    22    23    1
    31    31    32   ar
    32    32    26   ar
    33     6     1   ar
    34    23    17    1
    35    16     7    1
    36    15     9    1
    37    21    24    1
    38    21    25    1
