@<TRIPOS>MOLECULE
*****
 29 31 0 0 0
SMALL
GASTEIGER

@<TRIPOS>ATOM
      1 C         141.2573  140.4314  168.3463 C.ar    1  UNL1        0.0519
      2 C         140.8167  140.7642  169.7409 C.ar    1  UNL1        0.0853
      3 C         139.4218  140.4368  170.1850 C.ar    1  UNL1        0.1045
      4 N         138.4676  139.7767  169.2345 N.ar    1  UNL1       -0.2436
      5 C         138.9082  139.4438  167.8398 C.ar    1  UNL1        0.0825
      6 C         137.9539  138.7836  166.8893 C.ar    1  UNL1        0.0191
      7 C         138.3946  138.4508  165.4946 C.ar    1  UNL1        0.0016
      8 C         139.7894  138.7782  165.0505 C.ar    1  UNL1        0.0032
      9 C         140.7436  139.4384  166.0010 C.ar    1  UNL1        0.0028
     10 C         140.3030  139.7712  167.3957 C.ar    1  UNL1        0.0309
     11 C         140.2300  138.4454  163.6558 C.ar    1  UNL1        0.0396
     12 C         141.3752  137.5514  163.2827 C.ar    1  UNL1        0.1216
     13 N         141.4558  137.5016  161.7857 N.ar    1  UNL1       -0.1676
     14 N         140.3602  138.3648  161.2336 N.ar    1  UNL1       -0.2473
     15 C         140.0728  138.6029  159.7808 C.3     1  UNL1        0.1538
     16 C         139.6027  138.9481  162.3894 C.ar    1  UNL1        0.0967
     17 C         141.7709  141.4245  170.6915 C.2     1  UNL1        0.2455
     18 N         142.6224  140.5887  171.6006 N.am    1  UNL1       -0.3252
     19 O         141.8736  142.9203  170.7330 O.2     1  UNL1       -0.2703
     20 H         142.5550  139.6069  171.5734 H       1  UNL1        0.1453
     21 H         143.2487  141.0220  172.2245 H       1  UNL1        0.1453
     22 N         142.6521  140.7588  167.9022 N.pl3   1  UNL1       -0.3325
     23 H         143.3700  140.0927  168.0031 H       1  UNL1        0.1468
     24 C         142.9532  142.1012  167.3042 C.3     1  UNL1        0.0870
     25 C         142.9184  142.2841  165.8158 C.3     1  UNL1        0.0195
     26 C         144.0865  140.2987  164.6142 C.3     1  UNL1        0.0001
     27 C         144.0378  141.7554  164.9688 C.3     1  UNL1        0.0017
     28 C         141.7641  142.9957  165.1744 C.3     1  UNL1        0.0017
     29 C         140.4658  143.1357  165.9123 C.3     1  UNL1        0.0001
@<TRIPOS>BOND
     1    26    27    1
     2    27    25    1
     3    25    28    1
     4    28    29    1
     5    25    24    1
     6    24    22    1
     7    22     1    1
     8     1     2   ar
     9     2    17    1
    10    17    18   am
    11    17    19    2
    12     2     3   ar
    13     3     4   ar
    14     4     5   ar
    15     5     6   ar
    16     6     7   ar
    17     7     8   ar
    18     8    11    1
    19    11    12   ar
    20    12    13   ar
    21    13    14   ar
    22    14    15    1
    23    14    16   ar
    24     8     9   ar
    25     9    10   ar
    26    10     1   ar
    27    10     5   ar
    28    16    11   ar
    29    22    23    1
    30    18    20    1
    31    18    21    1
@<TRIPOS>MOLECULE
*****
 29 31 0 0 0
SMALL
GASTEIGER

@<TRIPOS>ATOM
      1 C         141.2478  140.4231  168.3622 C.ar    1  UNL1        0.0519
      2 C         140.8091  140.7552  169.7577 C.ar    1  UNL1        0.0853
      3 C         139.4149  140.4272  170.2036 C.ar    1  UNL1        0.1045
      4 N         138.4595  139.7673  169.2541 N.ar    1  UNL1       -0.2436
      5 C         138.8982  139.4352  167.8586 C.ar    1  UNL1        0.0825
      6 C         137.9427  138.7752  166.9092 C.ar    1  UNL1        0.0191
      7 C         138.3814  138.4432  165.5137 C.ar    1  UNL1        0.0016
      8 C         139.7756  138.7711  165.0678 C.ar    1  UNL1        0.0032
      9 C         140.7310  139.4311  166.0172 C.ar    1  UNL1        0.0028
     10 C         140.2923  139.7631  167.4127 C.ar    1  UNL1        0.0309
     11 C         140.2142  138.4390  163.6723 C.ar    1  UNL1        0.0396
     12 C         141.3529  137.5376  163.2970 C.ar    1  UNL1        0.1216
     13 N         141.4337  137.4915  161.7999 N.ar    1  UNL1       -0.1676
     14 N         140.3449  138.3645  161.2499 N.ar    1  UNL1       -0.2473
     15 C         140.0599  138.6090  159.7976 C.3     1  UNL1        0.1538
     16 C         139.5913  138.9501  162.4071 C.ar    1  UNL1        0.0967
     17 C         141.7645  141.4152  170.7072 C.2     1  UNL1        0.2455
     18 N         142.6280  140.5789  171.6044 N.am    1  UNL1       -0.3252
     19 O         141.8564  142.9114  170.7595 O.2     1  UNL1       -0.2703
     20 H         142.5677  139.5968  171.5701 H       1  UNL1        0.1453
     21 H         143.2551  141.0120  172.2276 H       1  UNL1        0.1453
     22 N         142.6419  140.7511  167.9163 N.pl3   1  UNL1       -0.3325
     23 H         143.3620  140.0886  168.0246 H       1  UNL1        0.1468
     24 C         142.9388  142.0884  167.3052 C.3     1  UNL1        0.0870
     25 C         142.8908  142.2597  165.8158 C.3     1  UNL1        0.0195
     26 C         140.4488  143.1352  165.9585 C.3     1  UNL1        0.0001
     27 C         141.7119  142.9308  165.1756 C.3     1  UNL1        0.0017
     28 C         144.0217  141.7599  164.9665 C.3     1  UNL1        0.0017
     29 C         143.9977  140.3573  164.4352 C.3     1  UNL1        0.0001
@<TRIPOS>BOND
     1    26    27    1
     2    27    25    1
     3    25    28    1
     4    28    29    1
     5    25    24    1
     6    24    22    1
     7    22     1    1
     8     1     2   ar
     9     2    17    1
    10    17    18   am
    11    17    19    2
    12     2     3   ar
    13     3     4   ar
    14     4     5   ar
    15     5     6   ar
    16     6     7   ar
    17     7     8   ar
    18     8    11    1
    19    11    12   ar
    20    12    13   ar
    21    13    14   ar
    22    14    15    1
    23    14    16   ar
    24     8     9   ar
    25     9    10   ar
    26    10     1   ar
    27    10     5   ar
    28    16    11   ar
    29    22    23    1
    30    18    20    1
    31    18    21    1
@<TRIPOS>MOLECULE
*****
 29 31 0 0 0
SMALL
GASTEIGER

@<TRIPOS>ATOM
      1 C         139.9272  141.1276  167.9774 C.ar    1  UNL1        0.0519
      2 C         139.4634  141.3849  169.3805 C.ar    1  UNL1        0.0853
      3 C         138.4307  140.4936  170.0043 C.ar    1  UNL1        0.1045
      4 N         137.8619  139.3450  169.2252 N.ar    1  UNL1       -0.2436
      5 C         138.3258  139.0877  167.8221 C.ar    1  UNL1        0.0825
      6 C         137.7570  137.9391  167.0429 C.ar    1  UNL1        0.0191
      7 C         138.2208  137.6818  165.6399 C.ar    1  UNL1        0.0016
      8 C         139.2535  138.5731  165.0160 C.ar    1  UNL1        0.0032
      9 C         139.8223  139.7216  165.7951 C.ar    1  UNL1        0.0028
     10 C         139.3584  139.9790  167.1982 C.ar    1  UNL1        0.0309
     11 C         139.7174  138.3157  163.6129 C.ar    1  UNL1        0.0396
     12 C         138.8378  138.0288  162.4321 C.ar    1  UNL1        0.1216
     13 N         139.7190  137.8359  161.2337 N.ar    1  UNL1       -0.1676
     14 N         141.1432  138.0035  161.6738 N.ar    1  UNL1       -0.2473
     15 C         142.3555  137.8938  160.7973 C.3     1  UNL1        0.1538
     16 C         141.1422  138.3000  163.1442 C.ar    1  UNL1        0.0967
     17 C         140.0322  142.5336  170.1597 C.2     1  UNL1        0.2455
     18 N         140.4782  142.3304  171.5774 N.am    1  UNL1       -0.3252
     19 O         140.1549  143.8853  169.5213 O.2     1  UNL1       -0.2703
     20 H         140.3977  141.4431  171.9964 H       1  UNL1        0.1453
     21 H         140.8515  143.0842  172.0888 H       1  UNL1        0.1453
     22 N         140.9599  142.0189  167.3536 N.pl3   1  UNL1       -0.3325
     23 H         140.6847  142.8463  166.8965 H       1  UNL1        0.1468
     24 C         142.4120  141.6495  167.4261 C.3     1  UNL1        0.0870
     25 C         142.8769  140.6269  168.4202 C.3     1  UNL1        0.0195
     26 C         143.2247  138.7471  166.6608 C.3     1  UNL1        0.0001
     27 C         142.8744  139.1718  168.0562 C.3     1  UNL1        0.0017
     28 C         143.3444  141.0595  169.7783 C.3     1  UNL1        0.0017
     29 C         143.8305  142.4624  169.9925 C.3     1  UNL1        0.0001
@<TRIPOS>BOND
     1    26    27    1
     2    27    25    1
     3    25    28    1
     4    28    29    1
     5    25    24    1
     6    24    22    1
     7    22     1    1
     8     1     2   ar
     9     2    17    1
    10    17    18   am
    11    17    19    2
    12     2     3   ar
    13     3     4   ar
    14     4     5   ar
    15     5     6   ar
    16     6     7   ar
    17     7     8   ar
    18     8    11    1
    19    11    12   ar
    20    12    13   ar
    21    13    14   ar
    22    14    15    1
    23    14    16   ar
    24     8     9   ar
    25     9    10   ar
    26    10     1   ar
    27    10     5   ar
    28    16    11   ar
    29    22    23    1
    30    18    20    1
    31    18    21    1
@<TRIPOS>MOLECULE
*****
 29 31 0 0 0
SMALL
GASTEIGER

@<TRIPOS>ATOM
      1 C         140.5052  141.5483  167.7176 C.ar    1  UNL1        0.0519
      2 C         140.2554  141.8677  169.1617 C.ar    1  UNL1        0.0853
      3 C         139.2612  141.0643  169.9465 C.ar    1  UNL1        0.1045
      4 N         138.5168  139.9413  169.2873 N.ar    1  UNL1       -0.2436
      5 C         138.7665  139.6218  167.8431 C.ar    1  UNL1        0.0825
      6 C         138.0221  138.4988  167.1838 C.ar    1  UNL1        0.0191
      7 C         138.2719  138.1793  165.7397 C.ar    1  UNL1        0.0016
      8 C         139.2661  138.9828  164.9549 C.ar    1  UNL1        0.0032
      9 C         140.0106  140.1058  165.6142 C.ar    1  UNL1        0.0028
     10 C         139.7608  140.4252  167.0583 C.ar    1  UNL1        0.0309
     11 C         139.5159  138.6633  163.5107 C.ar    1  UNL1        0.0396
     12 C         138.5056  138.1314  162.5378 C.ar    1  UNL1        0.1216
     13 N         139.1850  137.9589  161.2117 N.ar    1  UNL1       -0.1676
     14 N         140.6154  138.3842  161.3650 N.ar    1  UNL1       -0.2473
     15 C         141.6581  138.3756  160.2868 C.3     1  UNL1        0.1538
     16 C         140.8198  138.8195  162.7858 C.ar    1  UNL1        0.0967
     17 C         140.9999  142.9908  169.8211 C.2     1  UNL1        0.2455
     18 N         140.2770  144.2493  170.1999 N.am    1  UNL1       -0.3252
     19 O         142.4671  142.8552  170.1017 O.2     1  UNL1       -0.2703
     20 H         139.3140  144.3383  170.0157 H       1  UNL1        0.1453
     21 H         140.7656  144.9864  170.6326 H       1  UNL1        0.1453
     22 N         141.4995  142.3517  166.9328 N.pl3   1  UNL1       -0.3325
     23 H         141.2137  143.1723  166.4700 H       1  UNL1        0.1468
     24 C         142.9292  141.9049  166.8532 C.3     1  UNL1        0.0870
     25 C         143.5220  141.5196  165.5302 C.3     1  UNL1        0.0195
     26 C         144.4633  143.9150  165.1751 C.3     1  UNL1        0.0001
     27 C         144.0771  142.5756  164.6210 C.3     1  UNL1        0.0017
     28 C         143.5596  140.0783  165.1165 C.3     1  UNL1        0.0017
     29 C         143.3652  138.9989  166.1399 C.3     1  UNL1        0.0001
@<TRIPOS>BOND
     1    26    27    1
     2    27    25    1
     3    25    28    1
     4    28    29    1
     5    25    24    1
     6    24    22    1
     7    22     1    1
     8     1     2   ar
     9     2    17    1
    10    17    18   am
    11    17    19    2
    12     2     3   ar
    13     3     4   ar
    14     4     5   ar
    15     5     6   ar
    16     6     7   ar
    17     7     8   ar
    18     8    11    1
    19    11    12   ar
    20    12    13   ar
    21    13    14   ar
    22    14    15    1
    23    14    16   ar
    24     8     9   ar
    25     9    10   ar
    26    10     1   ar
    27    10     5   ar
    28    16    11   ar
    29    22    23    1
    30    18    20    1
    31    18    21    1
@<TRIPOS>MOLECULE
*****
 29 31 0 0 0
SMALL
GASTEIGER

@<TRIPOS>ATOM
      1 C         141.1629  141.7346  167.9910 C.ar    1  UNL1        0.0519
      2 C         141.4624  141.6050  169.4551 C.ar    1  UNL1        0.0853
      3 C         140.6861  140.6359  170.2965 C.ar    1  UNL1        0.1045
      4 N         139.6103  139.7962  169.6739 N.ar    1  UNL1       -0.2436
      5 C         139.3108  139.9257  168.2098 C.ar    1  UNL1        0.0825
      6 C         138.2350  139.0861  167.5872 C.ar    1  UNL1        0.0191
      7 C         137.9356  139.2156  166.1232 C.ar    1  UNL1        0.0016
      8 C         138.7119  140.1848  165.2817 C.ar    1  UNL1        0.0032
      9 C         139.7876  141.0244  165.9043 C.ar    1  UNL1        0.0028
     10 C         140.0871  140.8949  167.3684 C.ar    1  UNL1        0.0309
     11 C         138.4123  140.3143  163.8176 C.ar    1  UNL1        0.0396
     12 C         137.4756  141.3058  163.1936 C.ar    1  UNL1        0.1216
     13 N         137.4812  141.0794  161.7108 N.ar    1  UNL1       -0.1676
     14 N         138.4215  139.9478  161.4184 N.ar    1  UNL1       -0.2473
     15 C         138.7319  139.3875  160.0620 C.3     1  UNL1        0.1538
     16 C         138.9970  139.4750  162.7204 C.ar    1  UNL1        0.0967
     17 C         142.5382  142.4447  170.0777 C.2     1  UNL1        0.2455
     18 N         143.9445  141.9282  170.1512 N.am    1  UNL1       -0.3252
     19 O         142.2076  143.8008  170.6269 O.2     1  UNL1       -0.2703
     20 H         144.1615  141.0381  169.7908 H       1  UNL1        0.1453
     21 H         144.6506  142.4793  170.5599 H       1  UNL1        0.1453
     22 N         141.9392  142.7038  167.1496 N.pl3   1  UNL1       -0.3325
     23 H         141.6268  143.6324  167.0534 H       1  UNL1        0.1468
     24 C         143.1916  142.2580  166.4546 C.3     1  UNL1        0.0870
     25 C         143.3650  142.5108  164.9862 C.3     1  UNL1        0.0195
     26 C         145.6175  141.7241  163.9579 C.3     1  UNL1        0.0001
     27 C         144.1404  141.5410  164.1447 C.3     1  UNL1        0.0017
     28 C         142.7629  143.7334  164.3594 C.3     1  UNL1        0.0017
     29 C         143.6292  144.9147  164.0366 C.3     1  UNL1        0.0001
@<TRIPOS>BOND
     1    26    27    1
     2    27    25    1
     3    25    28    1
     4    28    29    1
     5    25    24    1
     6    24    22    1
     7    22     1    1
     8     1     2   ar
     9     2    17    1
    10    17    18   am
    11    17    19    2
    12     2     3   ar
    13     3     4   ar
    14     4     5   ar
    15     5     6   ar
    16     6     7   ar
    17     7     8   ar
    18     8    11    1
    19    11    12   ar
    20    12    13   ar
    21    13    14   ar
    22    14    15    1
    23    14    16   ar
    24     8     9   ar
    25     9    10   ar
    26    10     1   ar
    27    10     5   ar
    28    16    11   ar
    29    22    23    1
    30    18    20    1
    31    18    21    1
@<TRIPOS>MOLECULE
*****
 29 31 0 0 0
SMALL
GASTEIGER

@<TRIPOS>ATOM
      1 C         140.8795  140.4643  167.3365 C.ar    1  UNL1        0.0519
      2 C         140.8572  140.2346  168.8186 C.ar    1  UNL1        0.0853
      3 C         141.9308  139.4114  169.4663 C.ar    1  UNL1        0.1045
      4 N         143.0269  138.8178  168.6319 N.ar    1  UNL1       -0.2436
      5 C         143.0493  139.0475  167.1497 C.ar    1  UNL1        0.0825
      6 C         144.1453  138.4539  166.3152 C.ar    1  UNL1        0.0191
      7 C         144.1676  138.6836  164.8331 C.ar    1  UNL1        0.0016
      8 C         143.0940  139.5069  164.1854 C.ar    1  UNL1        0.0032
      9 C         141.9980  140.1004  165.0199 C.ar    1  UNL1        0.0028
     10 C         141.9756  139.8708  166.5020 C.ar    1  UNL1        0.0309
     11 C         143.1164  139.7366  162.7033 C.ar    1  UNL1        0.0396
     12 C         143.9158  138.9564  161.7021 C.ar    1  UNL1        0.1216
     13 N         143.6369  139.5243  160.3422 N.ar    1  UNL1       -0.1676
     14 N         142.6650  140.6556  160.5028 N.ar    1  UNL1       -0.2473
     15 C         142.1118  141.5063  159.3981 C.3     1  UNL1        0.1538
     16 C         142.3433  140.7867  161.9620 C.ar    1  UNL1        0.0967
     17 C         139.7611  140.8282  169.6532 C.2     1  UNL1        0.2455
     18 N         138.7713  139.9330  170.3380 N.am    1  UNL1       -0.3252
     19 O         139.6548  142.3169  169.8028 O.2     1  UNL1       -0.2703
     20 H         138.8411  138.9559  170.2398 H       1  UNL1        0.1453
     21 H         138.0520  140.3226  170.8857 H       1  UNL1        0.1453
     22 N         139.8059  141.2876  166.6889 N.pl3   1  UNL1       -0.3325
     23 H         139.7702  142.2593  166.8430 H       1  UNL1        0.1468
     24 C         138.7864  140.6303  165.8063 C.3     1  UNL1        0.0870
     25 C         138.4649  139.1762  165.9859 C.3     1  UNL1        0.0195
     26 C         137.1550  137.3169  167.2416 C.3     1  UNL1        0.0001
     27 C         137.6644  138.7260  167.1718 C.3     1  UNL1        0.0017
     28 C         138.9440  138.1723  164.9795 C.3     1  UNL1        0.0017
     29 C         138.9421  138.5148  163.5191 C.3     1  UNL1        0.0001
@<TRIPOS>BOND
     1    26    27    1
     2    27    25    1
     3    25    28    1
     4    28    29    1
     5    25    24    1
     6    24    22    1
     7    22     1    1
     8     1     2   ar
     9     2    17    1
    10    17    18   am
    11    17    19    2
    12     2     3   ar
    13     3     4   ar
    14     4     5   ar
    15     5     6   ar
    16     6     7   ar
    17     7     8   ar
    18     8    11    1
    19    11    12   ar
    20    12    13   ar
    21    13    14   ar
    22    14    15    1
    23    14    16   ar
    24     8     9   ar
    25     9    10   ar
    26    10     1   ar
    27    10     5   ar
    28    16    11   ar
    29    22    23    1
    30    18    20    1
    31    18    21    1
@<TRIPOS>MOLECULE
*****
 29 31 0 0 0
SMALL
GASTEIGER

@<TRIPOS>ATOM
      1 C         141.4134  139.1353  163.7522 C.ar    1  UNL1        0.0519
      2 C         141.0552  138.4317  162.4768 C.ar    1  UNL1        0.0853
      3 C         139.7299  137.7410  162.3480 C.ar    1  UNL1        0.1045
      4 N         138.7629  137.7540  163.4946 N.ar    1  UNL1       -0.2436
      5 C         139.1211  138.4576  164.7700 C.ar    1  UNL1        0.0825
      6 C         138.1541  138.4705  165.9166 C.ar    1  UNL1        0.0191
      7 C         138.5123  139.1741  167.1919 C.ar    1  UNL1        0.0016
      8 C         139.8376  139.8648  167.3207 C.ar    1  UNL1        0.0032
      9 C         140.8046  139.8519  166.1742 C.ar    1  UNL1        0.0028
     10 C         140.4464  139.1483  164.8988 C.ar    1  UNL1        0.0309
     11 C         140.1959  140.5684  168.5962 C.ar    1  UNL1        0.0396
     12 C         139.4077  140.5366  169.8720 C.ar    1  UNL1        0.1216
     13 N         140.1298  141.3759  170.8840 N.ar    1  UNL1       -0.1676
     14 N         141.3643  141.9264  170.2336 N.ar    1  UNL1       -0.2473
     15 C         142.3797  142.8192  170.8831 C.3     1  UNL1        0.1538
     16 C         141.4051  141.4273  168.8196 C.ar    1  UNL1        0.0967
     17 C         142.0222  138.4188  161.3302 C.2     1  UNL1        0.2455
     18 N         143.0880  137.3657  161.2598 N.am    1  UNL1       -0.3252
     19 O         141.9234  139.4590  160.2540 O.2     1  UNL1       -0.2703
     20 H         143.1529  136.6830  161.9662 H       1  UNL1        0.1453
     21 H         143.7227  137.3571  160.5073 H       1  UNL1        0.1453
     22 N         142.7387  139.8260  163.8809 N.pl3   1  UNL1       -0.3325
     23 H         143.5206  139.3320  164.2183 H       1  UNL1        0.1468
     24 C         142.8727  141.2695  163.4957 C.3     1  UNL1        0.0870
     25 C         142.4547  142.3439  164.4554 C.3     1  UNL1        0.0195
     26 C         140.3002  143.4166  165.4339 C.3     1  UNL1        0.0001
     27 C         141.1561  143.0667  164.2528 C.3     1  UNL1        0.0017
     28 C         143.3353  142.6953  165.6178 C.3     1  UNL1        0.0017
     29 C         144.5604  143.5339  165.4039 C.3     1  UNL1        0.0001
@<TRIPOS>BOND
     1    26    27    1
     2    27    25    1
     3    25    28    1
     4    28    29    1
     5    25    24    1
     6    24    22    1
     7    22     1    1
     8     1     2   ar
     9     2    17    1
    10    17    18   am
    11    17    19    2
    12     2     3   ar
    13     3     4   ar
    14     4     5   ar
    15     5     6   ar
    16     6     7   ar
    17     7     8   ar
    18     8    11    1
    19    11    12   ar
    20    12    13   ar
    21    13    14   ar
    22    14    15    1
    23    14    16   ar
    24     8     9   ar
    25     9    10   ar
    26    10     1   ar
    27    10     5   ar
    28    16    11   ar
    29    22    23    1
    30    18    20    1
    31    18    21    1
@<TRIPOS>MOLECULE
*****
 29 31 0 0 0
SMALL
GASTEIGER

@<TRIPOS>ATOM
      1 C         140.8853  141.1716  167.9908 C.ar    1  UNL1        0.0519
      2 C         141.1598  141.5161  169.4246 C.ar    1  UNL1        0.0853
      3 C         142.2288  140.7840  170.1805 C.ar    1  UNL1        0.1045
      4 N         143.0233  139.7074  169.5026 N.ar    1  UNL1       -0.2436
      5 C         142.7488  139.3628  168.0687 C.ar    1  UNL1        0.0825
      6 C         143.5433  138.2862  167.3908 C.ar    1  UNL1        0.0191
      7 C         143.2688  137.9417  165.9569 C.ar    1  UNL1        0.0016
      8 C         142.1999  138.6737  165.2010 C.ar    1  UNL1        0.0032
      9 C         141.4054  139.7503  165.8790 C.ar    1  UNL1        0.0028
     10 C         141.6798  140.0949  167.3128 C.ar    1  UNL1        0.0309
     11 C         141.9254  138.3291  163.7671 C.ar    1  UNL1        0.0396
     12 C         140.5919  137.9581  163.1892 C.ar    1  UNL1        0.1216
     13 N         140.7785  137.6947  161.7244 N.ar    1  UNL1       -0.1676
     14 N         142.2275  137.9030  161.3970 N.ar    1  UNL1       -0.2473
     15 C         142.8572  137.7466  160.0445 C.3     1  UNL1        0.1538
     16 C         142.9363  138.2951  162.6595 C.ar    1  UNL1        0.0967
     17 C         140.3653  142.5928  170.1026 C.2     1  UNL1        0.2455
     18 N         140.8659  144.0068  170.1030 N.am    1  UNL1       -0.3252
     19 O         139.0703  142.2554  170.7801 O.2     1  UNL1       -0.2703
     20 H         141.7158  144.2282  169.6583 H       1  UNL1        0.1453
     21 H         140.3444  144.7134  170.5480 H       1  UNL1        0.1453
     22 N         139.8164  141.9036  167.2349 N.pl3   1  UNL1       -0.3325
     23 H         138.9144  141.5166  167.1588 H       1  UNL1        0.1468
     24 C         140.1218  143.2255  166.5949 C.3     1  UNL1        0.0870
     25 C         140.2233  143.3304  165.1020 C.3     1  UNL1        0.0195
     26 C         137.8163  144.0386  164.4276 C.3     1  UNL1        0.0001
     27 C         139.0026  143.1375  164.2519 C.3     1  UNL1        0.0017
     28 C         141.5455  143.6281  164.4593 C.3     1  UNL1        0.0017
     29 C         141.8023  144.9806  163.8637 C.3     1  UNL1        0.0001
@<TRIPOS>BOND
     1    26    27    1
     2    27    25    1
     3    25    28    1
     4    28    29    1
     5    25    24    1
     6    24    22    1
     7    22     1    1
     8     1     2   ar
     9     2    17    1
    10    17    18   am
    11    17    19    2
    12     2     3   ar
    13     3     4   ar
    14     4     5   ar
    15     5     6   ar
    16     6     7   ar
    17     7     8   ar
    18     8    11    1
    19    11    12   ar
    20    12    13   ar
    21    13    14   ar
    22    14    15    1
    23    14    16   ar
    24     8     9   ar
    25     9    10   ar
    26    10     1   ar
    27    10     5   ar
    28    16    11   ar
    29    22    23    1
    30    18    20    1
    31    18    21    1
@<TRIPOS>MOLECULE
*****
 29 31 0 0 0
SMALL
GASTEIGER

@<TRIPOS>ATOM
      1 C         140.5308  144.4034  163.1856 C.ar    1  UNL1        0.0519
      2 C         141.0358  144.8081  161.8324 C.ar    1  UNL1        0.0853
      3 C         142.3746  144.3271  161.3568 C.ar    1  UNL1        0.1045
      4 N         143.2084  143.4413  162.2344 N.ar    1  UNL1       -0.2436
      5 C         142.7034  143.0365  163.5876 C.ar    1  UNL1        0.0825
      6 C         143.5372  142.1507  164.4652 C.ar    1  UNL1        0.0191
      7 C         143.0322  141.7460  165.8183 C.ar    1  UNL1        0.0016
      8 C         141.6934  142.2270  166.2939 C.ar    1  UNL1        0.0032
      9 C         140.8596  143.1128  165.4164 C.ar    1  UNL1        0.0028
     10 C         141.3646  143.5175  164.0632 C.ar    1  UNL1        0.0309
     11 C         141.1884  141.8222  167.6472 C.ar    1  UNL1        0.0396
     12 C         140.0101  140.9347  167.9193 C.ar    1  UNL1        0.1216
     13 N         139.8665  140.7978  169.4061 N.ar    1  UNL1       -0.1676
     14 N         140.9560  141.6007  170.0529 N.ar    1  UNL1       -0.2473
     15 C         141.1878  141.7452  171.5278 C.3     1  UNL1        0.1538
     16 C         141.7729  142.2338  168.9658 C.ar    1  UNL1        0.0967
     17 C         140.2020  145.6940  160.9548 C.2     1  UNL1        0.2455
     18 N         139.9920  145.3378  159.5129 N.am    1  UNL1       -0.3252
     19 O         139.5782  146.9359  161.5191 O.2     1  UNL1       -0.2703
     20 H         140.4015  144.5227  159.1426 H       1  UNL1        0.1453
     21 H         139.4448  145.9192  158.9369 H       1  UNL1        0.1453
     22 N         139.1920  144.8844  163.6612 N.pl3   1  UNL1       -0.3325
     23 H         139.1356  145.6347  164.2962 H       1  UNL1        0.1468
     24 C         137.9390  144.2223  163.1694 C.3     1  UNL1        0.0870
     25 C         137.8332  142.7260  163.1659 C.3     1  UNL1        0.0195
     26 C         139.2262  141.6969  161.2294 C.3     1  UNL1        0.0001
     27 C         137.8985  141.9725  161.8706 C.3     1  UNL1        0.0017
     28 C         137.6621  141.9833  164.4579 C.3     1  UNL1        0.0017
     29 C         138.2247  140.6010  164.6085 C.3     1  UNL1        0.0001
@<TRIPOS>BOND
     1    26    27    1
     2    27    25    1
     3    25    28    1
     4    28    29    1
     5    25    24    1
     6    24    22    1
     7    22     1    1
     8     1     2   ar
     9     2    17    1
    10    17    18   am
    11    17    19    2
    12     2     3   ar
    13     3     4   ar
    14     4     5   ar
    15     5     6   ar
    16     6     7   ar
    17     7     8   ar
    18     8    11    1
    19    11    12   ar
    20    12    13   ar
    21    13    14   ar
    22    14    15    1
    23    14    16   ar
    24     8     9   ar
    25     9    10   ar
    26    10     1   ar
    27    10     5   ar
    28    16    11   ar
    29    22    23    1
    30    18    20    1
    31    18    21    1
