@<TRIPOS>MOLECULE
*****
 26 30 0 0 0
SMALL
GASTEIGER

@<TRIPOS>ATOM
      1 C         140.0128  139.5699  166.8141 C.ar    1  UNL1        0.0152
      2 C         138.6803  139.0298  166.3864 C.ar    1  UNL1        0.0043
      3 C         138.5302  138.3819  165.0420 C.ar    1  UNL1        0.0369
      4 C         139.7126  138.2739  164.1252 C.ar    1  UNL1        0.1384
      5 C         141.0450  138.8139  164.5529 C.ar    1  UNL1        0.0369
      6 C         141.1951  139.4619  165.8974 C.ar    1  UNL1        0.0043
      7 O         140.6133  142.1617  172.1920 O.2     1  UNL1       -0.2734
      8 C         140.4632  141.5138  170.8475 C.2     1  UNL1        0.2410
      9 N         139.3777  140.5042  170.6185 N.am    1  UNL1       -0.2062
     10 N         139.2276  139.8562  169.2741 N.2     1  UNL1       -0.1836
     11 C         140.1629  140.2178  168.1586 C.2     1  UNL1        0.0763
     12 C         141.2485  141.2275  168.3876 C.3     1  UNL1        0.0509
     13 C         142.3339  142.2370  168.6165 C.3     1  UNL1        0.0160
     14 C         141.3986  141.8754  169.7320 C.3     1  UNL1        0.0841
     15 H         138.7638  140.2668  171.3507 H       1  UNL1        0.1772
     16 O         139.5624  137.6260  162.7807 O.3     1  UNL1       -0.4791
     17 C         139.1536  138.4471  161.5938 C.3     1  UNL1        0.1687
     18 C         140.1154  138.6616  160.4630 C.3     1  UNL1        0.0609
     19 C         139.7065  139.4827  159.2761 C.3     1  UNL1        0.0758
     20 N         138.3358  140.0894  159.2202 N.3     1  UNL1       -0.2737
     21 C         137.3740  139.8749  160.3511 C.3     1  UNL1        0.0758
     22 C         137.7829  139.0538  161.5379 C.3     1  UNL1        0.0609
     23 C         137.9270  140.9106  158.0334 C.3     1  UNL1        0.0575
     24 C         137.3327  140.6097  156.6894 C.3     1  UNL1        0.0160
     25 C         137.3487  142.0719  156.3550 C.3     1  UNL1        0.0028
     26 C         137.9430  142.3727  157.6990 C.3     1  UNL1        0.0160
@<TRIPOS>BOND
     1     7     8    2
     2     8     9   am
     3     9    10    1
     4    10    11    2
     5    11     1    1
     6     1     2   ar
     7     2     3   ar
     8     3     4   ar
     9     4    16    1
    10    16    17    1
    11    17    18    1
    12    18    19    1
    13    19    20    1
    14    20    23    1
    15    23    24    1
    16    24    25    1
    17    25    26    1
    18    20    21    1
    19    21    22    1
    20     4     5   ar
    21     5     6   ar
    22    11    12    1
    23    12    13    1
    24    14    13    1
    25    14     8    1
    26     6     1   ar
    27    14    12    1
    28    22    17    1
    29    26    23    1
    30     9    15    1
@<TRIPOS>MOLECULE
*****
 26 30 0 0 0
SMALL
GASTEIGER

@<TRIPOS>ATOM
      1 C         140.0226  139.5627  166.8323 C.ar    1  UNL1        0.0152
      2 C         141.2214  139.3777  165.9498 C.ar    1  UNL1        0.0043
      3 C         141.0696  138.7325  164.6041 C.ar    1  UNL1        0.0369
      4 C         139.7191  138.2724  164.1410 C.ar    1  UNL1        0.1384
      5 C         138.5204  138.4575  165.0234 C.ar    1  UNL1        0.0369
      6 C         138.6721  139.1026  166.3691 C.ar    1  UNL1        0.0043
      7 O         140.6295  142.1432  172.2149 O.2     1  UNL1       -0.2734
      8 C         140.4778  141.4981  170.8692 C.2     1  UNL1        0.2410
      9 N         139.3913  140.4899  170.6390 N.am    1  UNL1       -0.2062
     10 N         139.2395  139.8448  169.2934 N.2     1  UNL1       -0.1836
     11 C         140.1743  140.2078  168.1779 C.2     1  UNL1        0.0763
     12 C         141.2609  141.2160  168.4081 C.3     1  UNL1        0.0509
     13 C         142.3474  142.2242  168.6382 C.3     1  UNL1        0.0160
     14 C         141.4127  141.8612  169.7537 C.3     1  UNL1        0.0841
     15 H         138.7777  140.2516  171.3712 H       1  UNL1        0.1772
     16 O         139.5674  137.6273  162.7953 O.3     1  UNL1       -0.4791
     17 C         139.1540  138.4504  161.6113 C.3     1  UNL1        0.1687
     18 C         137.7798  139.0490  161.5570 C.3     1  UNL1        0.0609
     19 C         137.3665  139.8721  160.3730 C.3     1  UNL1        0.0758
     20 N         138.3275  140.0965  159.2433 N.3     1  UNL1       -0.2737
     21 C         139.7018  139.4977  159.2977 C.3     1  UNL1        0.0758
     22 C         140.1150  138.6747  160.4816 C.3     1  UNL1        0.0609
     23 C         137.9142  140.9195  158.0594 C.3     1  UNL1        0.0575
     24 C         137.9413  142.3808  157.7219 C.3     1  UNL1        0.0160
     25 C         137.3298  142.0834  156.3849 C.3     1  UNL1        0.0028
     26 C         137.3027  140.6221  156.7223 C.3     1  UNL1        0.0160
@<TRIPOS>BOND
     1     7     8    2
     2     8     9   am
     3     9    10    1
     4    10    11    2
     5    11     1    1
     6     1     2   ar
     7     2     3   ar
     8     3     4   ar
     9     4    16    1
    10    16    17    1
    11    17    18    1
    12    18    19    1
    13    19    20    1
    14    20    23    1
    15    23    24    1
    16    24    25    1
    17    25    26    1
    18    20    21    1
    19    21    22    1
    20     4     5   ar
    21     5     6   ar
    22    11    12    1
    23    12    13    1
    24    14    13    1
    25    14     8    1
    26     6     1   ar
    27    14    12    1
    28    22    17    1
    29    26    23    1
    30     9    15    1
@<TRIPOS>MOLECULE
*****
 26 30 0 0 0
SMALL
GASTEIGER

@<TRIPOS>ATOM
      1 C         141.5823  139.6305  167.1709 C.ar    1  UNL1        0.0152
      2 C         140.5351  139.5797  166.0981 C.ar    1  UNL1        0.0043
      3 C         140.8357  138.9150  164.7875 C.ar    1  UNL1        0.0369
      4 C         142.1835  138.3011  164.5496 C.ar    1  UNL1        0.1384
      5 C         143.2307  138.3519  165.6224 C.ar    1  UNL1        0.0369
      6 C         142.9300  139.0166  166.9330 C.ar    1  UNL1        0.0043
      7 O         140.3798  142.2894  172.4134 O.2     1  UNL1       -0.2734
      8 C         140.6804  141.6247  171.1028 C.2     1  UNL1        0.2410
      9 N         141.1273  140.1932  171.0730 N.am    1  UNL1       -0.2062
     10 N         141.4280  139.5284  169.7624 N.2     1  UNL1       -0.1836
     11 C         141.2817  140.2952  168.4815 C.2     1  UNL1        0.0763
     12 C         140.8347  141.7268  168.5113 C.3     1  UNL1        0.0509
     13 C         140.3878  143.1584  168.5411 C.3     1  UNL1        0.0160
     14 C         140.5341  142.3916  169.8219 C.3     1  UNL1        0.0841
     15 H         141.2234  139.6899  171.9137 H       1  UNL1        0.1772
     16 O         142.4842  137.6363  163.2390 O.3     1  UNL1       -0.4791
     17 C         142.9141  138.4601  162.0614 C.3     1  UNL1        0.1687
     18 C         143.6153  139.7684  162.2773 C.3     1  UNL1        0.0609
     19 C         144.0453  140.5922  161.0997 C.3     1  UNL1        0.0758
     20 N         143.7739  140.1077  159.7063 N.3     1  UNL1       -0.2737
     21 C         143.0726  138.7993  159.4905 C.3     1  UNL1        0.0758
     22 C         142.6427  137.9756  160.6680 C.3     1  UNL1        0.0609
     23 C         144.2037  140.9314  158.5288 C.3     1  UNL1        0.0575
     24 C         144.4851  142.3867  158.2984 C.3     1  UNL1        0.0160
     25 C         144.8117  142.0963  156.8635 C.3     1  UNL1        0.0028
     26 C         144.5303  140.6411  157.0939 C.3     1  UNL1        0.0160
@<TRIPOS>BOND
     1     7     8    2
     2     8     9   am
     3     9    10    1
     4    10    11    2
     5    11     1    1
     6     1     2   ar
     7     2     3   ar
     8     3     4   ar
     9     4    16    1
    10    16    17    1
    11    17    18    1
    12    18    19    1
    13    19    20    1
    14    20    23    1
    15    23    24    1
    16    24    25    1
    17    25    26    1
    18    20    21    1
    19    21    22    1
    20     4     5   ar
    21     5     6   ar
    22    11    12    1
    23    12    13    1
    24    14    13    1
    25    14     8    1
    26     6     1   ar
    27    14    12    1
    28    22    17    1
    29    26    23    1
    30     9    15    1
@<TRIPOS>MOLECULE
*****
 26 30 0 0 0
SMALL
GASTEIGER

@<TRIPOS>ATOM
      1 C         140.3965  139.4740  166.6907 C.ar    1  UNL1        0.0152
      2 C         141.7000  139.1290  166.0334 C.ar    1  UNL1        0.0043
      3 C         141.7089  138.4239  164.7095 C.ar    1  UNL1        0.0369
      4 C         140.4143  138.0637  164.0429 C.ar    1  UNL1        0.1384
      5 C         139.1109  138.4087  164.7002 C.ar    1  UNL1        0.0369
      6 C         139.1020  139.1139  166.0240 C.ar    1  UNL1        0.0043
      7 O         140.3609  142.2947  171.9862 O.2     1  UNL1       -0.2734
      8 C         140.3698  141.5895  170.6623 C.2     1  UNL1        0.2410
      9 N         139.3307  140.5513  170.3586 N.am    1  UNL1       -0.2062
     10 N         139.3396  139.8462  169.0347 N.2     1  UNL1       -0.1836
     11 C         140.3876  140.1792  168.0146 C.2     1  UNL1        0.0763
     12 C         141.4268  141.2175  168.3183 C.3     1  UNL1        0.0509
     13 C         142.4659  142.2557  168.6220 C.3     1  UNL1        0.0160
     14 C         141.4179  141.9226  169.6422 C.3     1  UNL1        0.0841
     15 H         138.6429  140.3327  171.0281 H       1  UNL1        0.1772
     16 O         140.4232  137.3586  162.7190 O.3     1  UNL1       -0.4791
     17 C         141.1467  137.9629  161.5522 C.3     1  UNL1        0.1687
     18 C         140.4243  138.8899  160.6202 C.3     1  UNL1        0.0609
     19 C         141.1478  139.4943  159.4534 C.3     1  UNL1        0.0758
     20 N         142.5937  139.1716  159.2187 N.3     1  UNL1       -0.2737
     21 C         143.3162  138.2445  160.1508 C.3     1  UNL1        0.0758
     22 C         142.5927  137.6402  161.3175 C.3     1  UNL1        0.0609
     23 C         143.3172  139.7759  158.0519 C.3     1  UNL1        0.0575
     24 C         143.4582  139.4334  156.5984 C.3     1  UNL1        0.0160
     25 C         144.3405  140.6305  156.4019 C.3     1  UNL1        0.0028
     26 C         144.1995  140.9730  157.8555 C.3     1  UNL1        0.0160
@<TRIPOS>BOND
     1     7     8    2
     2     8     9   am
     3     9    10    1
     4    10    11    2
     5    11     1    1
     6     1     2   ar
     7     2     3   ar
     8     3     4   ar
     9     4    16    1
    10    16    17    1
    11    17    18    1
    12    18    19    1
    13    19    20    1
    14    20    23    1
    15    23    24    1
    16    24    25    1
    17    25    26    1
    18    20    21    1
    19    21    22    1
    20     4     5   ar
    21     5     6   ar
    22    11    12    1
    23    12    13    1
    24    14    13    1
    25    14     8    1
    26     6     1   ar
    27    14    12    1
    28    22    17    1
    29    26    23    1
    30     9    15    1
@<TRIPOS>MOLECULE
*****
 26 30 0 0 0
SMALL
GASTEIGER

@<TRIPOS>ATOM
      1 C         140.4349  142.8588  166.0516 C.ar    1  UNL1        0.0152
      2 C         141.6687  142.6067  165.2367 C.ar    1  UNL1        0.0043
      3 C         141.9065  143.3838  163.9759 C.ar    1  UNL1        0.0369
      4 C         140.9104  144.4129  163.5300 C.ar    1  UNL1        0.1384
      5 C         139.6766  144.6650  164.3450 C.ar    1  UNL1        0.0369
      6 C         139.4388  143.8879  165.6058 C.ar    1  UNL1        0.0043
      7 O         139.4838  139.7505  171.0948 O.2     1  UNL1       -0.2734
      8 C         139.7216  140.5275  169.8340 C.2     1  UNL1        0.2410
      9 N         139.6106  139.8475  168.5017 N.am    1  UNL1       -0.2062
     10 N         139.8484  140.6246  167.2409 N.2     1  UNL1       -0.1836
     11 C         140.1971  142.0817  167.3124 C.2     1  UNL1        0.0763
     12 C         140.3081  142.7618  168.6448 C.3     1  UNL1        0.0509
     13 C         140.4190  143.4419  169.9772 C.3     1  UNL1        0.0160
     14 C         140.0703  141.9847  169.9056 C.3     1  UNL1        0.0841
     15 H         139.3817  138.8911  168.4547 H       1  UNL1        0.1772
     16 O         141.1482  145.1900  162.2692 O.3     1  UNL1       -0.4791
     17 C         140.5923  144.6948  160.9669 C.3     1  UNL1        0.1687
     18 C         139.7658  143.4436  160.9316 C.3     1  UNL1        0.0609
     19 C         139.2099  142.9485  159.6293 C.3     1  UNL1        0.0758
     20 N         139.4807  143.7046  158.3624 N.3     1  UNL1       -0.2737
     21 C         140.3072  144.9558  158.3978 C.3     1  UNL1        0.0758
     22 C         140.8630  145.4509  159.7000 C.3     1  UNL1        0.0609
     23 C         138.9249  143.2095  157.0601 C.3     1  UNL1        0.0575
     24 C         137.5547  142.8719  156.5515 C.3     1  UNL1        0.0160
     25 C         138.1388  142.5093  155.2184 C.3     1  UNL1        0.0028
     26 C         139.5090  142.8468  155.7270 C.3     1  UNL1        0.0160
@<TRIPOS>BOND
     1     7     8    2
     2     8     9   am
     3     9    10    1
     4    10    11    2
     5    11     1    1
     6     1     2   ar
     7     2     3   ar
     8     3     4   ar
     9     4    16    1
    10    16    17    1
    11    17    18    1
    12    18    19    1
    13    19    20    1
    14    20    23    1
    15    23    24    1
    16    24    25    1
    17    25    26    1
    18    20    21    1
    19    21    22    1
    20     4     5   ar
    21     5     6   ar
    22    11    12    1
    23    12    13    1
    24    14    13    1
    25    14     8    1
    26     6     1   ar
    27    14    12    1
    28    22    17    1
    29    26    23    1
    30     9    15    1
@<TRIPOS>MOLECULE
*****
 26 30 0 0 0
SMALL
GASTEIGER

@<TRIPOS>ATOM
      1 C         140.8985  142.5197  166.4254 C.ar    1  UNL1        0.0152
      2 C         142.3587  142.3704  166.1160 C.ar    1  UNL1        0.0043
      3 C         142.9617  143.1191  164.9645 C.ar    1  UNL1        0.0369
      4 C         142.1045  144.0171  164.1224 C.ar    1  UNL1        0.1384
      5 C         140.6445  144.1663  164.4319 C.ar    1  UNL1        0.0369
      6 C         140.0415  143.4177  165.5834 C.ar    1  UNL1        0.0043
      7 O         138.4866  139.5251  171.0313 O.2     1  UNL1       -0.2734
      8 C         139.0896  140.2737  169.8798 C.2     1  UNL1        0.2410
      9 N         139.1238  139.6508  168.5157 N.am    1  UNL1       -0.2062
     10 N         139.7268  140.3995  167.3643 N.2     1  UNL1       -0.1836
     11 C         140.2956  141.7711  167.5769 C.2     1  UNL1        0.0763
     12 C         140.2613  142.3940  168.9410 C.3     1  UNL1        0.0509
     13 C         140.2271  143.0170  170.3051 C.3     1  UNL1        0.0160
     14 C         139.6583  141.6454  170.0925 C.3     1  UNL1        0.0841
     15 H         138.7505  138.7506  168.3762 H       1  UNL1        0.1772
     16 O         142.7075  144.7657  162.9710 O.3     1  UNL1       -0.4791
     17 C         143.1592  144.0237  161.7481 C.3     1  UNL1        0.1687
     18 C         142.3279  144.0582  160.5000 C.3     1  UNL1        0.0609
     19 C         142.7796  143.3162  159.2771 C.3     1  UNL1        0.0758
     20 N         144.0627  142.5396  159.3023 N.3     1  UNL1       -0.2737
     21 C         144.8940  142.5051  160.5504 C.3     1  UNL1        0.0758
     22 C         144.4423  143.2471  161.7732 C.3     1  UNL1        0.0609
     23 C         144.5144  141.7976  158.0795 C.3     1  UNL1        0.0575
     24 C         144.2972  140.4164  157.5363 C.3     1  UNL1        0.0160
     25 C         145.1532  140.7483  156.3501 C.3     1  UNL1        0.0028
     26 C         145.3704  142.1295  156.8933 C.3     1  UNL1        0.0160
@<TRIPOS>BOND
     1     7     8    2
     2     8     9   am
     3     9    10    1
     4    10    11    2
     5    11     1    1
     6     1     2   ar
     7     2     3   ar
     8     3     4   ar
     9     4    16    1
    10    16    17    1
    11    17    18    1
    12    18    19    1
    13    19    20    1
    14    20    23    1
    15    23    24    1
    16    24    25    1
    17    25    26    1
    18    20    21    1
    19    21    22    1
    20     4     5   ar
    21     5     6   ar
    22    11    12    1
    23    12    13    1
    24    14    13    1
    25    14     8    1
    26     6     1   ar
    27    14    12    1
    28    22    17    1
    29    26    23    1
    30     9    15    1
@<TRIPOS>MOLECULE
*****
 26 30 0 0 0
SMALL
GASTEIGER

@<TRIPOS>ATOM
      1 C         142.9727  140.7611  166.8863 C.ar    1  UNL1        0.0152
      2 C         143.2956  141.8797  165.9405 C.ar    1  UNL1        0.0043
      3 C         143.9113  141.5793  164.6061 C.ar    1  UNL1        0.0369
      4 C         144.2042  140.1604  164.2175 C.ar    1  UNL1        0.1384
      5 C         143.8813  139.0419  165.1633 C.ar    1  UNL1        0.0369
      6 C         143.2655  139.3422  166.4978 C.ar    1  UNL1        0.0043
      7 O         140.5098  141.9625  172.2240 O.2     1  UNL1       -0.2734
      8 C         141.1255  141.6622  170.8896 C.2     1  UNL1        0.2410
      9 N         142.1720  140.5943  170.7698 N.am    1  UNL1       -0.2062
     10 N         142.7877  140.2939  169.4353 N.2     1  UNL1       -0.1836
     11 C         142.3570  141.0614  168.2207 C.2     1  UNL1        0.0763
     12 C         141.3104  142.1294  168.3405 C.3     1  UNL1        0.0509
     13 C         140.2639  143.1973  168.4604 C.3     1  UNL1        0.0160
     14 C         140.6947  142.4298  169.6749 C.3     1  UNL1        0.0841
     15 H         142.4547  140.0905  171.5669 H       1  UNL1        0.1772
     16 O         144.8199  139.8600  162.8831 O.3     1  UNL1       -0.4791
     17 C         143.9515  139.4432  161.7332 C.3     1  UNL1        0.1687
     18 C         143.6907  137.9880  161.4793 C.3     1  UNL1        0.0609
     19 C         142.8223  137.5712  160.3294 C.3     1  UNL1        0.0758
     20 N         142.2148  138.6095  159.4334 N.3     1  UNL1       -0.2737
     21 C         142.4757  140.0647  159.6873 C.3     1  UNL1        0.0758
     22 C         143.3440  140.4815  160.8372 C.3     1  UNL1        0.0609
     23 C         141.3465  138.1928  158.2835 C.3     1  UNL1        0.0575
     24 C         141.5902  137.5629  156.9442 C.3     1  UNL1        0.0160
     25 C         140.1185  137.6033  156.6573 C.3     1  UNL1        0.0028
     26 C         139.8747  138.2332  157.9966 C.3     1  UNL1        0.0160
@<TRIPOS>BOND
     1     7     8    2
     2     8     9   am
     3     9    10    1
     4    10    11    2
     5    11     1    1
     6     1     2   ar
     7     2     3   ar
     8     3     4   ar
     9     4    16    1
    10    16    17    1
    11    17    18    1
    12    18    19    1
    13    19    20    1
    14    20    23    1
    15    23    24    1
    16    24    25    1
    17    25    26    1
    18    20    21    1
    19    21    22    1
    20     4     5   ar
    21     5     6   ar
    22    11    12    1
    23    12    13    1
    24    14    13    1
    25    14     8    1
    26     6     1   ar
    27    14    12    1
    28    22    17    1
    29    26    23    1
    30     9    15    1
@<TRIPOS>MOLECULE
*****
 26 30 0 0 0
SMALL
GASTEIGER

@<TRIPOS>ATOM
      1 C         139.1051  139.8976  166.3202 C.ar    1  UNL1        0.0152
      2 C         139.2631  138.4769  165.8656 C.ar    1  UNL1        0.0043
      3 C         138.8923  138.0924  164.4639 C.ar    1  UNL1        0.0369
      4 C         138.3635  139.1285  163.5169 C.ar    1  UNL1        0.1384
      5 C         138.2055  140.5492  163.9716 C.ar    1  UNL1        0.0369
      6 C         138.5762  140.9337  165.3732 C.ar    1  UNL1        0.0043
      7 O         140.5882  141.4358  171.9269 O.2     1  UNL1       -0.2734
      8 C         140.2174  141.0513  170.5252 C.2     1  UNL1        0.2410
      9 N         139.1796  139.9948  170.2869 N.am    1  UNL1       -0.2062
     10 N         138.8088  139.6103  168.8853 N.2     1  UNL1       -0.1836
     11 C         139.4758  140.2822  167.7219 C.2     1  UNL1        0.0763
     12 C         140.5137  141.3387  167.9601 C.3     1  UNL1        0.0509
     13 C         141.5515  142.3951  168.1984 C.3     1  UNL1        0.0160
     14 C         140.8845  141.7232  169.3618 C.3     1  UNL1        0.0841
     15 H         138.7418  139.5538  171.0505 H       1  UNL1        0.1772
     16 O         137.9927  138.7440  162.1152 O.3     1  UNL1       -0.4791
     17 C         138.6203  139.4533  160.9520 C.3     1  UNL1        0.1687
     18 C         140.1105  139.6108  160.8849 C.3     1  UNL1        0.0609
     19 C         140.7381  140.3201  159.7216 C.3     1  UNL1        0.0758
     20 N         139.8754  140.8720  158.6256 N.3     1  UNL1       -0.2737
     21 C         138.3852  140.7144  158.6928 C.3     1  UNL1        0.0758
     22 C         137.7577  140.0051  159.8560 C.3     1  UNL1        0.0609
     23 C         140.5029  141.5813  157.4624 C.3     1  UNL1        0.0575
     24 C         140.6130  141.3133  155.9906 C.3     1  UNL1        0.0160
     25 C         141.3904  142.5844  155.8173 C.3     1  UNL1        0.0028
     26 C         141.2804  142.8523  157.2891 C.3     1  UNL1        0.0160
@<TRIPOS>BOND
     1     7     8    2
     2     8     9   am
     3     9    10    1
     4    10    11    2
     5    11     1    1
     6     1     2   ar
     7     2     3   ar
     8     3     4   ar
     9     4    16    1
    10    16    17    1
    11    17    18    1
    12    18    19    1
    13    19    20    1
    14    20    23    1
    15    23    24    1
    16    24    25    1
    17    25    26    1
    18    20    21    1
    19    21    22    1
    20     4     5   ar
    21     5     6   ar
    22    11    12    1
    23    12    13    1
    24    14    13    1
    25    14     8    1
    26     6     1   ar
    27    14    12    1
    28    22    17    1
    29    26    23    1
    30     9    15    1
@<TRIPOS>MOLECULE
*****
 26 30 0 0 0
SMALL
GASTEIGER

@<TRIPOS>ATOM
      1 C         139.6434  140.6074  166.4379 C.ar    1  UNL1        0.0152
      2 C         139.5729  141.6084  165.3229 C.ar    1  UNL1        0.0043
      3 C         139.0489  141.1979  163.9786 C.ar    1  UNL1        0.0369
      4 C         138.5955  139.7865  163.7494 C.ar    1  UNL1        0.1384
      5 C         138.6660  138.7857  164.8644 C.ar    1  UNL1        0.0369
      6 C         139.1899  139.1961  166.2086 C.ar    1  UNL1        0.0043
      7 O         141.7390  142.2492  171.8150 O.2     1  UNL1       -0.2734
      8 C         141.2151  141.8387  170.4707 C.2     1  UNL1        0.2410
      9 N         141.9589  142.2239  169.2263 N.am    1  UNL1       -0.2062
     10 N         141.4350  141.8134  167.8821 N.2     1  UNL1       -0.1836
     11 C         140.1673  141.0179  167.7822 C.2     1  UNL1        0.0763
     12 C         139.4234  140.6327  169.0266 C.3     1  UNL1        0.0509
     13 C         138.6797  140.2476  170.2709 C.3     1  UNL1        0.0160
     14 C         139.9474  141.0431  170.3708 C.3     1  UNL1        0.0841
     15 H         142.7909  142.7460  169.2919 H       1  UNL1        0.1772
     16 O         138.0716  139.3761  162.4051 O.3     1  UNL1       -0.4791
     17 C         139.0250  139.1078  161.2785 C.3     1  UNL1        0.1687
     18 C         140.3732  138.5146  161.5621 C.3     1  UNL1        0.0609
     19 C         141.3266  138.2463  160.4356 C.3     1  UNL1        0.0758
     20 N         140.9318  138.5712  159.0254 N.3     1  UNL1       -0.2737
     21 C         139.5835  139.1645  158.7419 C.3     1  UNL1        0.0758
     22 C         138.6302  139.4328  159.8684 C.3     1  UNL1        0.0609
     23 C         141.8851  138.3030  157.8989 C.3     1  UNL1        0.0575
     24 C         142.9049  139.1146  157.1563 C.3     1  UNL1        0.0160
     25 C         143.2334  137.9236  156.3057 C.3     1  UNL1        0.0028
     26 C         142.2136  137.1120  157.0483 C.3     1  UNL1        0.0160
@<TRIPOS>BOND
     1     7     8    2
     2     8     9   am
     3     9    10    1
     4    10    11    2
     5    11     1    1
     6     1     2   ar
     7     2     3   ar
     8     3     4   ar
     9     4    16    1
    10    16    17    1
    11    17    18    1
    12    18    19    1
    13    19    20    1
    14    20    23    1
    15    23    24    1
    16    24    25    1
    17    25    26    1
    18    20    21    1
    19    21    22    1
    20     4     5   ar
    21     5     6   ar
    22    11    12    1
    23    12    13    1
    24    14    13    1
    25    14     8    1
    26     6     1   ar
    27    14    12    1
    28    22    17    1
    29    26    23    1
    30     9    15    1
