@<TRIPOS>MOLECULE
*****
 42 45 0 0 0
SMALL
GASTEIGER

@<TRIPOS>ATOM
      1 C         142.3064  144.2424  161.5427 C.3     1  UNL1        0.0781
      2 C         143.0220  144.7177  162.7724 C.3     1  UNL1        0.0372
      3 C         144.1382  143.9012  163.3533 C.3     1  UNL1        0.0738
      4 N         144.5389  142.6095  162.7045 N.3     1  UNL1       -0.2726
      5 C         143.8233  142.1342  161.4748 C.3     1  UNL1        0.0738
      6 C         142.7071  142.9507  160.8939 C.3     1  UNL1        0.0372
      7 N         141.1902  145.0589  160.9618 N.am    1  UNL1       -0.2808
      8 C         140.1303  145.6262  161.8590 C.2     1  UNL1        0.2300
      9 O         139.0141  146.4427  161.2781 O.2     1  UNL1       -0.2745
     10 C         140.2071  144.5026  158.6222 C.3     1  UNL1        0.0233
     11 C         141.1338  145.3081  159.4837 C.3     1  UNL1        0.0934
     12 C         140.1867  145.3770  163.3371 C.3     1  UNL1        0.1116
     13 C         139.7636  144.0485  163.8904 C.ar    1  UNL1       -0.0130
     14 C         138.8313  143.1724  163.1073 C.ar    1  UNL1       -0.0025
     15 C         138.4082  141.8440  163.6606 C.ar    1  UNL1        0.0180
     16 C         138.9175  141.3916  164.9970 C.ar    1  UNL1        0.1057
     17 C         139.8498  142.2677  165.7801 C.ar    1  UNL1        0.0180
     18 C         140.2729  143.5961  165.2268 C.ar    1  UNL1       -0.0025
     19 S         138.4943  140.0631  165.5504 S.O2    1  UNL1        0.0104
     20 C         138.0713  138.7347  166.1037 C.3     1  UNL1        0.1816
     21 O         139.2325  140.3579  166.8224 O.2     1  UNL1       -0.1686
     22 O         137.7562  139.7683  164.2783 O.2     1  UNL1       -0.1686
     23 C         145.6551  141.7930  163.2854 C.3     1  UNL1        0.0724
     24 C         145.3572  140.4842  163.9548 C.3     1  UNL1        0.0217
     25 C         143.9462  140.1353  164.3253 C.3     1  UNL1        0.0238
     26 C         143.0324  139.5232  163.3054 C.ar    1  UNL1       -0.0216
     27 C         141.5661  139.8383  163.3269 C.ar    1  UNL1       -0.0042
     28 C         140.6523  139.2262  162.3069 C.ar    1  UNL1        0.0005
     29 C         141.2049  138.2990  161.2654 C.ar    1  UNL1        0.0114
     30 C         142.6713  137.9838  161.2438 C.ar    1  UNL1        0.0574
     31 CL        143.2238  137.0566  160.2022 Cl      1  UNL1       -0.0823
     32 C         143.5850  138.5959  162.2637 C.ar    1  UNL1        0.0071
     33 C         143.4489  140.3984  165.7158 C.3     1  UNL1        0.0070
     34 C         143.3788  141.8045  166.2337 C.3     1  UNL1        0.0195
     35 C         142.8815  142.0676  167.6242 C.3     1  UNL1        0.0954
     36 N         142.4544  140.9248  168.4968 N.3     1  UNL1       -0.1594
     37 C         142.5245  139.5188  167.9789 C.3     1  UNL1        0.0954
     38 C         143.0218  139.2556  166.5884 C.3     1  UNL1        0.0195
     39 S         141.9571  141.1879  169.8872 S.O2    1  UNL1        0.0457
     40 C         141.4598  141.4511  171.2778 C.3     1  UNL1        0.1960
     41 O         142.7213  142.4783  169.9163 O.2     1  UNL1       -0.1572
     42 O         141.1929  139.8976  169.8582 O.2     1  UNL1       -0.1572
@<TRIPOS>BOND
     1    10    11    1
     2    11     7    1
     3     7     8   am
     4     8     9    2
     5     8    12    1
     6    12    13    1
     7    13    14   ar
     8    14    15   ar
     9    15    16   ar
    10    16    19    1
    11    19    20    1
    12    19    21    2
    13    19    22    2
    14    16    17   ar
    15    17    18   ar
    16     7     1    1
    17     1     2    1
    18     2     3    1
    19     3     4    1
    20     4    23    1
    21    23    24    1
    22    25    24    1
    23    25    26    1
    24    26    27   ar
    25    27    28   ar
    26    28    29   ar
    27    29    30   ar
    28    30    31    1
    29    30    32   ar
    30    25    33    1
    31    33    34    1
    32    34    35    1
    33    35    36    1
    34    36    39    1
    35    39    40    1
    36    39    41    2
    37    39    42    2
    38    36    37    1
    39    37    38    1
    40     4     5    1
    41     5     6    1
    42    18    13   ar
    43     6     1    1
    44    32    26   ar
    45    38    33    1
@<TRIPOS>MOLECULE
*****
 42 45 0 0 0
SMALL
GASTEIGER

@<TRIPOS>ATOM
      1 C         140.8766  138.2987  160.9783 C.3     1  UNL1        0.0781
      2 C         139.5167  138.9023  161.1682 C.3     1  UNL1        0.0372
      3 C         138.7998  138.7396  162.4757 C.3     1  UNL1        0.0738
      4 N         139.4428  137.9733  163.5933 N.3     1  UNL1       -0.2726
      5 C         140.8029  137.3696  163.4035 C.3     1  UNL1        0.0738
      6 C         141.5198  137.5323  162.0960 C.3     1  UNL1        0.0372
      7 N         141.5936  138.4615  159.6708 N.am    1  UNL1       -0.2808
      8 C         143.0713  138.7188  159.6527 C.2     1  UNL1        0.2300
      9 O         143.7882  138.8816  158.3452 O.2     1  UNL1       -0.2745
     10 C         140.4250  139.6160  157.6580 C.3     1  UNL1        0.0233
     11 C         140.8329  138.3669  158.3815 C.3     1  UNL1        0.0934
     12 C         143.8320  138.8134  160.9420 C.3     1  UNL1        0.1116
     13 C         143.8953  140.1169  161.6815 C.ar    1  UNL1       -0.0130
     14 C         143.8404  141.4114  160.9258 C.ar    1  UNL1       -0.0025
     15 C         143.9038  142.7148  161.6654 C.ar    1  UNL1        0.0180
     16 C         144.0221  142.7238  163.1607 C.ar    1  UNL1        0.1057
     17 C         144.0770  141.4292  163.9164 C.ar    1  UNL1        0.0180
     18 C         144.0136  140.1258  163.1768 C.ar    1  UNL1       -0.0025
     19 S         144.0855  144.0273  163.9003 S.O2    1  UNL1        0.0104
     20 C         144.1489  145.3307  164.6398 C.3     1  UNL1        0.1816
     21 O         144.1922  144.7616  162.5967 O.2     1  UNL1       -0.1686
     22 O         143.9788  143.2929  165.2038 O.2     1  UNL1       -0.1686
     23 C         138.7259  137.8105  164.9008 C.3     1  UNL1        0.0724
     24 C         138.3303  139.0200  165.6949 C.3     1  UNL1        0.0217
     25 C         139.3355  140.0992  165.9686 C.3     1  UNL1        0.0238
     26 C         140.3263  139.9361  167.0830 C.ar    1  UNL1       -0.0216
     27 C         141.7212  139.4723  166.7845 C.ar    1  UNL1       -0.0042
     28 C         142.7119  139.3093  167.8990 C.ar    1  UNL1        0.0005
     29 C         142.3077  139.6101  169.3118 C.ar    1  UNL1        0.0114
     30 C         140.9128  140.0739  169.6103 C.ar    1  UNL1        0.0574
     31 CL        140.5086  140.3746  171.0232 Cl      1  UNL1       -0.0823
     32 C         139.9221  140.2369  168.4959 C.ar    1  UNL1        0.0071
     33 C         139.3500  141.3414  165.1280 C.3     1  UNL1        0.0070
     34 C         138.1400  141.7181  164.3254 C.3     1  UNL1        0.0195
     35 C         138.1545  142.9603  163.4848 C.3     1  UNL1        0.0954
     36 N         139.3790  143.8259  163.4468 N.3     1  UNL1       -0.1594
     37 C         140.5889  143.4492  164.2493 C.3     1  UNL1        0.0954
     38 C         140.5745  142.2070  165.0900 C.3     1  UNL1        0.0195
     39 S         139.3935  145.0681  162.6062 S.O2    1  UNL1        0.0457
     40 C         139.4079  146.3103  161.7655 C.3     1  UNL1        0.1960
     41 O         140.8750  145.1873  162.8079 O.2     1  UNL1       -0.1572
     42 O         137.9119  144.9488  162.4044 O.2     1  UNL1       -0.1572
@<TRIPOS>BOND
     1    10    11    1
     2    11     7    1
     3     7     8   am
     4     8     9    2
     5     8    12    1
     6    12    13    1
     7    13    14   ar
     8    14    15   ar
     9    15    16   ar
    10    16    19    1
    11    19    20    1
    12    19    21    2
    13    19    22    2
    14    16    17   ar
    15    17    18   ar
    16     7     1    1
    17     1     2    1
    18     2     3    1
    19     3     4    1
    20     4    23    1
    21    23    24    1
    22    25    24    1
    23    25    26    1
    24    26    27   ar
    25    27    28   ar
    26    28    29   ar
    27    29    30   ar
    28    30    31    1
    29    30    32   ar
    30    25    33    1
    31    33    34    1
    32    34    35    1
    33    35    36    1
    34    36    39    1
    35    39    40    1
    36    39    41    2
    37    39    42    2
    38    36    37    1
    39    37    38    1
    40     4     5    1
    41     5     6    1
    42    18    13   ar
    43     6     1    1
    44    32    26   ar
    45    38    33    1
@<TRIPOS>MOLECULE
*****
 42 45 0 0 0
SMALL
GASTEIGER

@<TRIPOS>ATOM
      1 C         142.7153  139.2901  159.7015 C.3     1  UNL1        0.0781
      2 C         143.1286  140.6625  159.2592 C.3     1  UNL1        0.0372
      3 C         143.9396  141.5326  160.1732 C.3     1  UNL1        0.0738
      4 N         144.3372  141.0303  161.5295 N.3     1  UNL1       -0.2726
      5 C         143.9238  139.6579  161.9719 C.3     1  UNL1        0.0738
      6 C         143.1129  138.7878  161.0579 C.3     1  UNL1        0.0372
      7 N         141.9044  138.4200  158.7875 N.am    1  UNL1       -0.2808
      8 C         140.4275  138.6453  158.6526 C.2     1  UNL1        0.2300
      9 O         139.6166  137.7752  157.7386 O.2     1  UNL1       -0.2745
     10 C         143.0163  137.5720  156.5980 C.3     1  UNL1        0.0233
     11 C         142.5703  137.3247  158.0086 C.3     1  UNL1        0.0934
     12 C         139.7616  139.7406  159.4315 C.3     1  UNL1        0.1116
     13 C         139.4446  139.5419  160.8842 C.ar    1  UNL1       -0.0130
     14 C         139.1629  138.1652  161.4088 C.ar    1  UNL1       -0.0025
     15 C         138.8459  137.9666  162.8614 C.ar    1  UNL1        0.0180
     16 C         138.8106  139.1447  163.7893 C.ar    1  UNL1        0.1057
     17 C         139.0923  140.5213  163.2646 C.ar    1  UNL1        0.0180
     18 C         139.4093  140.7200  161.8120 C.ar    1  UNL1       -0.0025
     19 S         138.4936  138.9460  165.2419 S.O2    1  UNL1        0.0104
     20 C         138.1766  138.7473  166.6945 C.3     1  UNL1        0.1816
     21 O         138.7687  137.4782  165.1012 O.2     1  UNL1       -0.1686
     22 O         138.2184  140.4138  165.3827 O.2     1  UNL1       -0.1686
     23 C         145.1481  141.9004  162.4434 C.3     1  UNL1        0.0724
     24 C         144.5253  143.1097  163.0756 C.3     1  UNL1        0.0217
     25 C         143.1822  143.0036  163.7350 C.3     1  UNL1        0.0238
     26 C         141.9943  143.6935  163.1326 C.ar    1  UNL1       -0.0216
     27 C         142.1036  144.3303  161.7789 C.ar    1  UNL1       -0.0042
     28 C         140.9157  145.0202  161.1764 C.ar    1  UNL1        0.0005
     29 C         139.6185  145.0733  161.9277 C.ar    1  UNL1        0.0114
     30 C         139.5091  144.4364  163.2814 C.ar    1  UNL1        0.0574
     31 CL        138.2118  144.4895  164.0326 Cl      1  UNL1       -0.0823
     32 C         140.6970  143.7465  163.8838 C.ar    1  UNL1        0.0071
     33 C         143.0269  142.2076  164.9968 C.3     1  UNL1        0.0070
     34 C         142.6165  140.7664  164.9288 C.3     1  UNL1        0.0195
     35 C         142.4612  139.9704  166.1906 C.3     1  UNL1        0.0954
     36 N         142.7164  140.6155  167.5205 N.3     1  UNL1       -0.1594
     37 C         143.1268  142.0566  167.5886 C.3     1  UNL1        0.0954
     38 C         143.2821  142.8527  166.3268 C.3     1  UNL1        0.0195
     39 S         142.5611  139.8195  168.7823 S.O2    1  UNL1        0.0457
     40 C         142.4058  139.0235  170.0442 C.3     1  UNL1        0.1960
     41 O         143.1738  138.6288  168.1065 O.2     1  UNL1       -0.1572
     42 O         141.9484  141.0102  169.4581 O.2     1  UNL1       -0.1572
@<TRIPOS>BOND
     1    10    11    1
     2    11     7    1
     3     7     8   am
     4     8     9    2
     5     8    12    1
     6    12    13    1
     7    13    14   ar
     8    14    15   ar
     9    15    16   ar
    10    16    19    1
    11    19    20    1
    12    19    21    2
    13    19    22    2
    14    16    17   ar
    15    17    18   ar
    16     7     1    1
    17     1     2    1
    18     2     3    1
    19     3     4    1
    20     4    23    1
    21    23    24    1
    22    25    24    1
    23    25    26    1
    24    26    27   ar
    25    27    28   ar
    26    28    29   ar
    27    29    30   ar
    28    30    31    1
    29    30    32   ar
    30    25    33    1
    31    33    34    1
    32    34    35    1
    33    35    36    1
    34    36    39    1
    35    39    40    1
    36    39    41    2
    37    39    42    2
    38    36    37    1
    39    37    38    1
    40     4     5    1
    41     5     6    1
    42    18    13   ar
    43     6     1    1
    44    32    26   ar
    45    38    33    1
@<TRIPOS>MOLECULE
*****
 42 45 0 0 0
SMALL
GASTEIGER

@<TRIPOS>ATOM
      1 C         140.3789  139.7390  167.2879 C.3     1  UNL1        0.0781
      2 C         141.4022  139.2495  166.3065 C.3     1  UNL1        0.0372
      3 C         140.9661  138.5341  165.0623 C.3     1  UNL1        0.0738
      4 N         139.5067  138.3081  164.7995 N.3     1  UNL1       -0.2726
      5 C         138.4833  138.7976  165.7810 C.3     1  UNL1        0.0738
      6 C         138.9194  139.5130  167.0251 C.3     1  UNL1        0.0372
      7 N         140.8149  140.4544  168.5321 N.am    1  UNL1       -0.2808
      8 C         140.9152  141.9511  168.5405 C.2     1  UNL1        0.2300
      9 O         141.3513  142.6665  169.7847 O.2     1  UNL1       -0.2745
     10 C         142.5221  139.0895  169.9364 C.3     1  UNL1        0.0233
     11 C         141.1507  139.6733  169.7678 C.3     1  UNL1        0.0934
     12 C         140.5794  142.7323  167.3048 C.3     1  UNL1        0.1116
     13 C         141.4948  142.6874  166.1173 C.ar    1  UNL1       -0.0130
     14 C         140.9277  142.7547  164.7303 C.ar    1  UNL1       -0.0025
     15 C         141.8431  142.7098  163.5428 C.ar    1  UNL1        0.0180
     16 C         143.3255  142.5978  163.7424 C.ar    1  UNL1        0.1057
     17 C         143.8926  142.5306  165.1294 C.ar    1  UNL1        0.0180
     18 C         142.9772  142.5754  166.3169 C.ar    1  UNL1       -0.0025
     19 S         144.2409  142.5530  162.5549 S.O2    1  UNL1        0.0104
     20 C         145.1562  142.5082  161.3674 C.3     1  UNL1        0.1816
     21 O         145.2764  141.8479  163.3797 O.2     1  UNL1       -0.1686
     22 O         143.2054  143.2582  161.7300 O.2     1  UNL1       -0.1686
     23 C         139.0706  137.5927  163.5553 C.3     1  UNL1        0.0724
     24 C         138.2801  138.3212  162.5093 C.3     1  UNL1        0.0217
     25 C         138.9443  139.3606  161.6558 C.3     1  UNL1        0.0238
     26 C         138.7027  140.8167  161.9229 C.ar    1  UNL1       -0.0216
     27 C         137.7886  141.2333  163.0369 C.ar    1  UNL1       -0.0042
     28 C         137.5470  142.6894  163.3040 C.ar    1  UNL1        0.0005
     29 C         138.2194  143.7290  162.4572 C.ar    1  UNL1        0.0114
     30 C         139.1335  143.3124  161.3432 C.ar    1  UNL1        0.0574
     31 CL        139.8060  144.3520  160.4964 Cl      1  UNL1       -0.0823
     32 C         139.3751  141.8563  161.0761 C.ar    1  UNL1        0.0071
     33 C         139.8501  138.9440  160.5351 C.3     1  UNL1        0.0070
     34 C         141.3027  138.6824  160.8026 C.3     1  UNL1        0.0195
     35 C         142.2085  138.2658  159.6820 C.3     1  UNL1        0.0954
     36 N         141.6617  138.1107  158.2938 N.3     1  UNL1       -0.1594
     37 C         140.2092  138.3722  158.0263 C.3     1  UNL1        0.0954
     38 C         139.3033  138.7889  159.1470 C.3     1  UNL1        0.0195
     39 S         142.5675  137.6940  157.1732 S.O2    1  UNL1        0.0457
     40 C         143.4734  137.2774  156.0525 C.3     1  UNL1        0.1960
     41 O         141.5467  136.6926  156.7204 O.2     1  UNL1       -0.1572
     42 O         143.5883  138.6955  157.6259 O.2     1  UNL1       -0.1572
@<TRIPOS>BOND
     1    10    11    1
     2    11     7    1
     3     7     8   am
     4     8     9    2
     5     8    12    1
     6    12    13    1
     7    13    14   ar
     8    14    15   ar
     9    15    16   ar
    10    16    19    1
    11    19    20    1
    12    19    21    2
    13    19    22    2
    14    16    17   ar
    15    17    18   ar
    16     7     1    1
    17     1     2    1
    18     2     3    1
    19     3     4    1
    20     4    23    1
    21    23    24    1
    22    25    24    1
    23    25    26    1
    24    26    27   ar
    25    27    28   ar
    26    28    29   ar
    27    29    30   ar
    28    30    31    1
    29    30    32   ar
    30    25    33    1
    31    33    34    1
    32    34    35    1
    33    35    36    1
    34    36    39    1
    35    39    40    1
    36    39    41    2
    37    39    42    2
    38    36    37    1
    39    37    38    1
    40     4     5    1
    41     5     6    1
    42    18    13   ar
    43     6     1    1
    44    32    26   ar
    45    38    33    1
@<TRIPOS>MOLECULE
*****
 42 45 0 0 0
SMALL
GASTEIGER

@<TRIPOS>ATOM
      1 C         141.3227  138.5634  160.0793 C.3     1  UNL1        0.0781
      2 C         139.8318  138.4016  160.1139 C.3     1  UNL1        0.0372
      3 C         139.1435  138.0666  161.4038 C.3     1  UNL1        0.0738
      4 N         139.9459  137.8934  162.6592 N.3     1  UNL1       -0.2726
      5 C         141.4368  138.0552  162.6247 C.3     1  UNL1        0.0738
      6 C         142.1252  138.3901  161.3347 C.3     1  UNL1        0.0372
      7 N         142.0110  138.8983  158.7894 N.am    1  UNL1       -0.2808
      8 C         142.0713  140.3214  158.3189 C.2     1  UNL1        0.2300
      9 O         142.7596  140.6564  157.0290 O.2     1  UNL1       -0.2745
     10 C         141.8620  137.1613  156.8632 C.3     1  UNL1        0.0233
     11 C         142.6391  137.8103  157.9699 C.3     1  UNL1        0.0934
     12 C         141.4431  141.4095  159.1384 C.3     1  UNL1        0.1116
     13 C         142.0940  141.8593  160.4128 C.ar    1  UNL1       -0.0130
     14 C         141.2549  142.1483  161.6221 C.ar    1  UNL1       -0.0025
     15 C         141.9058  142.5981  162.8964 C.ar    1  UNL1        0.0180
     16 C         143.3957  142.7590  162.9615 C.ar    1  UNL1        0.1057
     17 C         144.2348  142.4701  161.7522 C.ar    1  UNL1        0.0180
     18 C         143.5839  142.0202  160.4779 C.ar    1  UNL1       -0.0025
     19 S         144.0466  143.2089  164.2359 S.O2    1  UNL1        0.0104
     20 C         144.6975  143.6587  165.5103 C.3     1  UNL1        0.1816
     21 O         144.7900  141.9085  164.3152 O.2     1  UNL1       -0.1686
     22 O         143.3032  144.5092  164.1566 O.2     1  UNL1       -0.1686
     23 C         139.2576  137.5585  163.9491 C.3     1  UNL1        0.0724
     24 C         138.3663  138.5691  164.6081 C.3     1  UNL1        0.0217
     25 C         138.9391  139.8631  165.1054 C.3     1  UNL1        0.0238
     26 C         138.6117  141.1474  164.4029 C.ar    1  UNL1       -0.0216
     27 C         138.0059  141.1185  163.0310 C.ar    1  UNL1       -0.0042
     28 C         137.6785  142.4028  162.3285 C.ar    1  UNL1        0.0005
     29 C         137.9569  143.7159  162.9980 C.ar    1  UNL1        0.0114
     30 C         138.5626  143.7448  164.3699 C.ar    1  UNL1        0.0574
     31 CL        138.8410  145.0580  165.0394 Cl      1  UNL1       -0.0823
     32 C         138.8900  142.4606  165.0724 C.ar    1  UNL1        0.0071
     33 C         139.8392  139.8730  166.3052 C.3     1  UNL1        0.0070
     34 C         141.3261  139.7832  166.1281 C.3     1  UNL1        0.0195
     35 C         142.2262  139.7930  167.3279 C.3     1  UNL1        0.0954
     36 N         141.6396  139.8927  168.7048 N.3     1  UNL1       -0.1594
     37 C         140.1529  139.9824  168.8820 C.3     1  UNL1        0.0954
     38 C         139.2526  139.9726  167.6821 C.3     1  UNL1        0.0195
     39 S         142.5398  139.9025  169.9046 S.O2    1  UNL1        0.0457
     40 C         143.4400  139.9123  171.1045 C.3     1  UNL1        0.1960
     41 O         142.0535  141.2767  170.2582 O.2     1  UNL1       -0.1572
     42 O         143.0262  138.5283  169.5510 O.2     1  UNL1       -0.1572
@<TRIPOS>BOND
     1    10    11    1
     2    11     7    1
     3     7     8   am
     4     8     9    2
     5     8    12    1
     6    12    13    1
     7    13    14   ar
     8    14    15   ar
     9    15    16   ar
    10    16    19    1
    11    19    20    1
    12    19    21    2
    13    19    22    2
    14    16    17   ar
    15    17    18   ar
    16     7     1    1
    17     1     2    1
    18     2     3    1
    19     3     4    1
    20     4    23    1
    21    23    24    1
    22    25    24    1
    23    25    26    1
    24    26    27   ar
    25    27    28   ar
    26    28    29   ar
    27    29    30   ar
    28    30    31    1
    29    30    32   ar
    30    25    33    1
    31    33    34    1
    32    34    35    1
    33    35    36    1
    34    36    39    1
    35    39    40    1
    36    39    41    2
    37    39    42    2
    38    36    37    1
    39    37    38    1
    40     4     5    1
    41     5     6    1
    42    18    13   ar
    43     6     1    1
    44    32    26   ar
    45    38    33    1
@<TRIPOS>MOLECULE
*****
 42 45 0 0 0
SMALL
GASTEIGER

@<TRIPOS>ATOM
      1 C         142.4234  140.2625  166.7280 C.3     1  UNL1        0.0781
      2 C         142.4547  138.8208  166.3153 C.3     1  UNL1        0.0372
      3 C         143.0796  138.4278  165.0095 C.3     1  UNL1        0.0738
      4 N         143.6733  139.4765  164.1164 N.3     1  UNL1       -0.2726
      5 C         143.6421  140.9184  164.5291 C.3     1  UNL1        0.0738
      6 C         143.0171  141.3114  165.8349 C.3     1  UNL1        0.0372
      7 N         141.7985  140.6555  168.0338 N.am    1  UNL1       -0.2808
      8 C         140.3231  140.9151  168.1111 C.2     1  UNL1        0.2300
      9 O         139.6982  141.3080  169.4169 O.2     1  UNL1       -0.2745
     10 C         142.7074  139.6696  170.2590 C.3     1  UNL1        0.0233
     11 C         142.6489  140.7889  169.2621 C.3     1  UNL1        0.0934
     12 C         139.4727  140.7816  166.8827 C.3     1  UNL1        0.1116
     13 C         139.5065  141.8475  165.8277 C.ar    1  UNL1       -0.0130
     14 C         139.0675  141.5320  164.4286 C.ar    1  UNL1       -0.0025
     15 C         139.1013  142.5978  163.3736 C.ar    1  UNL1        0.0180
     16 C         139.5741  143.9790  163.7179 C.ar    1  UNL1        0.1057
     17 C         140.0131  144.2945  165.1170 C.ar    1  UNL1        0.0180
     18 C         139.9793  143.2287  166.1720 C.ar    1  UNL1       -0.0025
     19 S         139.6079  145.0449  162.6629 S.O2    1  UNL1        0.0104
     20 C         139.6416  146.1106  161.6079 C.3     1  UNL1        0.1816
     21 O         138.1730  144.7613  162.3305 O.2     1  UNL1       -0.1686
     22 O         141.0428  145.3284  162.9952 O.2     1  UNL1       -0.1686
     23 C         144.2982  139.0836  162.8107 C.3     1  UNL1        0.0724
     24 C         143.6649  138.0172  161.9670 C.3     1  UNL1        0.0217
     25 C         142.6114  138.3819  160.9634 C.3     1  UNL1        0.0238
     26 C         141.1757  138.4823  161.3859 C.ar    1  UNL1       -0.0216
     27 C         140.6613  137.6249  162.5041 C.ar    1  UNL1       -0.0042
     28 C         139.2255  137.7254  162.9266 C.ar    1  UNL1        0.0005
     29 C         138.3042  138.6833  162.2311 C.ar    1  UNL1        0.0114
     30 C         138.8187  139.5406  161.1129 C.ar    1  UNL1        0.0574
     31 CL        137.8974  140.4985  160.4174 Cl      1  UNL1       -0.0823
     32 C         140.2544  139.4402  160.6904 C.ar    1  UNL1        0.0071
     33 C         142.9937  138.6460  159.5372 C.3     1  UNL1        0.0070
     34 C         142.6637  137.6409  158.4737 C.3     1  UNL1        0.0195
     35 C         143.0459  137.9051  157.0475 C.3     1  UNL1        0.0954
     36 N         143.7582  139.1744  156.6847 N.3     1  UNL1       -0.1594
     37 C         144.0881  140.1795  157.7481 C.3     1  UNL1        0.0954
     38 C         143.7059  139.9153  159.1744 C.3     1  UNL1        0.0195
     39 S         144.1404  139.4386  155.2585 S.O2    1  UNL1        0.0457
     40 C         144.5227  139.7027  153.8323 C.3     1  UNL1        0.1960
     41 O         143.0434  140.4561  155.1530 O.2     1  UNL1       -0.1572
     42 O         145.2374  138.4210  155.3640 O.2     1  UNL1       -0.1572
@<TRIPOS>BOND
     1    10    11    1
     2    11     7    1
     3     7     8   am
     4     8     9    2
     5     8    12    1
     6    12    13    1
     7    13    14   ar
     8    14    15   ar
     9    15    16   ar
    10    16    19    1
    11    19    20    1
    12    19    21    2
    13    19    22    2
    14    16    17   ar
    15    17    18   ar
    16     7     1    1
    17     1     2    1
    18     2     3    1
    19     3     4    1
    20     4    23    1
    21    23    24    1
    22    25    24    1
    23    25    26    1
    24    26    27   ar
    25    27    28   ar
    26    28    29   ar
    27    29    30   ar
    28    30    31    1
    29    30    32   ar
    30    25    33    1
    31    33    34    1
    32    34    35    1
    33    35    36    1
    34    36    39    1
    35    39    40    1
    36    39    41    2
    37    39    42    2
    38    36    37    1
    39    37    38    1
    40     4     5    1
    41     5     6    1
    42    18    13   ar
    43     6     1    1
    44    32    26   ar
    45    38    33    1
@<TRIPOS>MOLECULE
*****
 42 45 0 0 0
SMALL
GASTEIGER

@<TRIPOS>ATOM
      1 C         142.8038  139.1933  159.8776 C.3     1  UNL1        0.0781
      2 C         143.2156  140.5845  159.4969 C.3     1  UNL1        0.0372
      3 C         144.0740  141.3928  160.4242 C.3     1  UNL1        0.0738
      4 N         144.5206  140.8099  161.7321 N.3     1  UNL1       -0.2726
      5 C         144.1089  139.4186  162.1128 C.3     1  UNL1        0.0738
      6 C         143.2505  138.6103  161.1856 C.3     1  UNL1        0.0372
      7 N         141.9454  138.3850  158.9504 N.am    1  UNL1       -0.2808
      8 C         140.4750  138.6655  158.8538 C.2     1  UNL1        0.2300
      9 O         139.6166  137.8572  157.9265 O.2     1  UNL1       -0.2745
     10 C         142.9714  137.5748  156.7052 C.3     1  UNL1        0.0233
     11 C         142.5574  137.2961  158.1197 C.3     1  UNL1        0.0934
     12 C         139.8631  139.7543  159.6844 C.3     1  UNL1        0.1116
     13 C         139.4847  139.4866  161.1111 C.ar    1  UNL1       -0.0130
     14 C         139.8241  138.1689  161.7424 C.ar    1  UNL1       -0.0025
     15 C         139.4457  137.9012  163.1689 C.ar    1  UNL1        0.0180
     16 C         138.7279  138.9512  163.9642 C.ar    1  UNL1        0.1057
     17 C         138.3886  140.2688  163.3329 C.ar    1  UNL1        0.0180
     18 C         138.7669  140.5365  161.9063 C.ar    1  UNL1       -0.0025
     19 S         138.3496  138.6834  165.3908 S.O2    1  UNL1        0.0104
     20 C         137.9712  138.4158  166.8174 C.3     1  UNL1        0.1816
     21 O         137.9727  140.1252  165.5614 O.2     1  UNL1       -0.1686
     22 O         138.7264  137.2416  165.2202 O.2     1  UNL1       -0.1686
     23 C         145.3790  141.6182  162.6593 C.3     1  UNL1        0.0724
     24 C         145.1587  141.5441  164.1412 C.3     1  UNL1        0.0217
     25 C         143.8187  141.8920  164.7185 C.3     1  UNL1        0.0238
     26 C         143.3925  141.3053  166.0316 C.ar    1  UNL1       -0.0216
     27 C         143.1886  139.8248  166.1607 C.ar    1  UNL1       -0.0042
     28 C         142.7625  139.2382  167.4739 C.ar    1  UNL1        0.0005
     29 C         142.5403  140.1320  168.6578 C.ar    1  UNL1        0.0114
     30 C         142.7442  141.6124  168.5287 C.ar    1  UNL1        0.0574
     31 CL        142.5220  142.5062  169.7127 Cl      1  UNL1       -0.0823
     32 C         143.1703  142.1991  167.2156 C.ar    1  UNL1        0.0071
     33 C         142.9047  142.8265  163.9827 C.3     1  UNL1        0.0070
     34 C         143.1041  144.3094  164.0895 C.3     1  UNL1        0.0195
     35 C         142.1902  145.2439  163.3537 C.3     1  UNL1        0.0954
     36 N         141.0769  144.6956  162.5112 N.3     1  UNL1       -0.1594
     37 C         140.8774  143.2128  162.4044 C.3     1  UNL1        0.0954
     38 C         141.7914  142.2782  163.1402 C.3     1  UNL1        0.0195
     39 S         140.1629  145.6301  161.7755 S.O2    1  UNL1        0.0457
     40 C         139.2490  146.5647  161.0396 C.3     1  UNL1        0.1960
     41 O         139.2388  145.6564  162.9567 O.2     1  UNL1       -0.1572
     42 O         141.0870  145.6038  160.5942 O.2     1  UNL1       -0.1572
@<TRIPOS>BOND
     1    10    11    1
     2    11     7    1
     3     7     8   am
     4     8     9    2
     5     8    12    1
     6    12    13    1
     7    13    14   ar
     8    14    15   ar
     9    15    16   ar
    10    16    19    1
    11    19    20    1
    12    19    21    2
    13    19    22    2
    14    16    17   ar
    15    17    18   ar
    16     7     1    1
    17     1     2    1
    18     2     3    1
    19     3     4    1
    20     4    23    1
    21    23    24    1
    22    25    24    1
    23    25    26    1
    24    26    27   ar
    25    27    28   ar
    26    28    29   ar
    27    29    30   ar
    28    30    31    1
    29    30    32   ar
    30    25    33    1
    31    33    34    1
    32    34    35    1
    33    35    36    1
    34    36    39    1
    35    39    40    1
    36    39    41    2
    37    39    42    2
    38    36    37    1
    39    37    38    1
    40     4     5    1
    41     5     6    1
    42    18    13   ar
    43     6     1    1
    44    32    26   ar
    45    38    33    1
@<TRIPOS>MOLECULE
*****
 42 45 0 0 0
SMALL
GASTEIGER

@<TRIPOS>ATOM
      1 C         140.4676  138.7001  160.8853 C.3     1  UNL1        0.0781
      2 C         140.4593  137.5955  161.9000 C.3     1  UNL1        0.0372
      3 C         139.7766  137.7954  163.2207 C.3     1  UNL1        0.0738
      4 N         139.1023  139.0998  163.5266 N.3     1  UNL1       -0.2726
      5 C         139.1106  140.2045  162.5118 C.3     1  UNL1        0.0738
      6 C         139.7932  140.0047  161.1912 C.3     1  UNL1        0.0372
      7 N         141.1502  138.5003  159.5647 N.am    1  UNL1       -0.2808
      8 C         142.6043  138.1346  159.5198 C.2     1  UNL1        0.2300
      9 O         143.2869  137.9348  158.1991 O.2     1  UNL1       -0.2745
     10 C         140.4639  139.9528  157.5229 C.3     1  UNL1        0.0233
     11 C         140.3788  138.6660  158.2890 C.3     1  UNL1        0.0934
     12 C         143.3757  137.9688  160.7954 C.3     1  UNL1        0.1116
     13 C         143.6378  139.1567  161.6732 C.ar    1  UNL1       -0.0130
     14 C         143.5835  139.0131  163.1653 C.ar    1  UNL1       -0.0025
     15 C         143.8455  140.2009  164.0430 C.ar    1  UNL1        0.0180
     16 C         144.1619  141.5323  163.4286 C.ar    1  UNL1        0.1057
     17 C         144.2162  141.6758  161.9366 C.ar    1  UNL1        0.0180
     18 C         143.9541  140.4880  161.0588 C.ar    1  UNL1       -0.0025
     19 S         144.4240  142.7201  164.3064 S.O2    1  UNL1        0.0104
     20 C         144.6860  143.9078  165.1842 C.3     1  UNL1        0.1816
     21 O         144.2106  141.8684  165.5226 O.2     1  UNL1       -0.1686
     22 O         144.6374  143.5718  163.0903 O.2     1  UNL1       -0.1686
     23 C         138.4197  139.2996  164.8472 C.3     1  UNL1        0.0724
     24 C         139.2344  139.5323  166.0850 C.3     1  UNL1        0.0217
     25 C         139.5830  140.9305  166.5016 C.3     1  UNL1        0.0238
     26 C         139.9269  141.2232  167.9319 C.ar    1  UNL1       -0.0216
     27 C         140.0233  140.1027  168.9245 C.ar    1  UNL1       -0.0042
     28 C         140.3672  140.3954  170.3550 C.ar    1  UNL1        0.0005
     29 C         140.6147  141.8086  170.7928 C.ar    1  UNL1        0.0114
     30 C         140.5183  142.9290  169.8002 C.ar    1  UNL1        0.0574
     31 CL        140.7658  144.3423  170.2380 Cl      1  UNL1       -0.0823
     32 C         140.1744  142.6364  168.3698 C.ar    1  UNL1        0.0071
     33 C         139.5877  142.0360  165.4878 C.3     1  UNL1        0.0070
     34 C         140.8670  142.4248  164.8079 C.3     1  UNL1        0.0195
     35 C         140.8717  143.5303  163.7941 C.3     1  UNL1        0.0954
     36 N         139.5971  144.2471  163.4602 N.3     1  UNL1       -0.1594
     37 C         138.3178  143.8584  164.1401 C.3     1  UNL1        0.0954
     38 C         138.3130  142.7529  165.1539 C.3     1  UNL1        0.0195
     39 S         139.6018  145.3526  162.4465 S.O2    1  UNL1        0.0457
     40 C         139.6064  146.4582  161.4326 C.3     1  UNL1        0.1960
     41 O         141.0728  145.5474  162.6657 O.2     1  UNL1       -0.1572
     42 O         138.1308  145.1578  162.2272 O.2     1  UNL1       -0.1572
@<TRIPOS>BOND
     1    10    11    1
     2    11     7    1
     3     7     8   am
     4     8     9    2
     5     8    12    1
     6    12    13    1
     7    13    14   ar
     8    14    15   ar
     9    15    16   ar
    10    16    19    1
    11    19    20    1
    12    19    21    2
    13    19    22    2
    14    16    17   ar
    15    17    18   ar
    16     7     1    1
    17     1     2    1
    18     2     3    1
    19     3     4    1
    20     4    23    1
    21    23    24    1
    22    25    24    1
    23    25    26    1
    24    26    27   ar
    25    27    28   ar
    26    28    29   ar
    27    29    30   ar
    28    30    31    1
    29    30    32   ar
    30    25    33    1
    31    33    34    1
    32    34    35    1
    33    35    36    1
    34    36    39    1
    35    39    40    1
    36    39    41    2
    37    39    42    2
    38    36    37    1
    39    37    38    1
    40     4     5    1
    41     5     6    1
    42    18    13   ar
    43     6     1    1
    44    32    26   ar
    45    38    33    1
@<TRIPOS>MOLECULE
*****
 42 45 0 0 0
SMALL
GASTEIGER

@<TRIPOS>ATOM
      1 C         143.3622  142.8441  159.6578 C.3     1  UNL1        0.0781
      2 C         142.1521  143.6657  159.3254 C.3     1  UNL1        0.0372
      3 C         141.5152  144.5231  160.3786 C.3     1  UNL1        0.0738
      4 N         142.0885  144.5589  161.7642 N.3     1  UNL1       -0.2726
      5 C         143.2986  143.7373  162.0967 C.3     1  UNL1        0.0738
      6 C         143.9355  142.8799  161.0435 C.3     1  UNL1        0.0372
      7 N         143.9990  141.9867  158.6046 N.am    1  UNL1       -0.2808
      8 C         143.5072  140.5878  158.3778 C.2     1  UNL1        0.2300
      9 O         144.1440  139.7304  157.3246 O.2     1  UNL1       -0.2745
     10 C         146.4570  142.8065  158.4149 C.3     1  UNL1        0.0233
     11 C         145.1277  142.5280  157.7782 C.3     1  UNL1        0.0934
     12 C         142.3785  140.0464  159.2042 C.3     1  UNL1        0.1116
     13 C         142.6021  139.7061  160.6480 C.ar    1  UNL1       -0.0130
     14 C         141.4682  139.8015  161.6253 C.ar    1  UNL1       -0.0025
     15 C         141.6918  139.4612  163.0689 C.ar    1  UNL1        0.0180
     16 C         143.0493  139.0254  163.5352 C.ar    1  UNL1        0.1057
     17 C         144.1831  138.9300  162.5579 C.ar    1  UNL1        0.0180
     18 C         143.9595  139.2704  161.1143 C.ar    1  UNL1       -0.0025
     19 S         143.2728  138.6851  164.9790 S.O2    1  UNL1        0.0104
     20 C         143.4964  138.3448  166.4226 C.3     1  UNL1        0.1816
     21 O         144.7171  139.0672  164.8453 O.2     1  UNL1       -0.1686
     22 O         141.8285  138.3031  165.1126 O.2     1  UNL1       -0.1686
     23 C         141.4516  145.4163  162.8174 C.3     1  UNL1        0.0724
     24 C         140.2096  144.9479  163.5159 C.3     1  UNL1        0.0217
     25 C         140.0805  143.5135  163.9351 C.3     1  UNL1        0.0238
     26 C         139.2863  142.5558  163.0973 C.ar    1  UNL1       -0.0216
     27 C         138.5604  141.4150  163.7466 C.ar    1  UNL1       -0.0042
     28 C         137.7661  140.4573  162.9087 C.ar    1  UNL1        0.0005
     29 C         137.6978  140.6404  161.4215 C.ar    1  UNL1        0.0114
     30 C         138.4237  141.7812  160.7722 C.ar    1  UNL1        0.0574
     31 CL        138.3554  141.9643  159.2849 Cl      1  UNL1       -0.0823
     32 C         139.2179  142.7389  161.6100 C.ar    1  UNL1        0.0071
     33 C         140.7457  143.0367  165.1921 C.3     1  UNL1        0.0070
     34 C         140.0367  143.1583  166.5084 C.3     1  UNL1        0.0195
     35 C         140.7019  142.6816  167.7655 C.3     1  UNL1        0.0954
     36 N         142.0761  142.0832  167.7063 N.3     1  UNL1       -0.1594
     37 C         142.7851  141.9615  166.3901 C.3     1  UNL1        0.0954
     38 C         142.1199  142.4383  165.1329 C.3     1  UNL1        0.0195
     39 S         142.7412  141.6064  168.9633 S.O2    1  UNL1        0.0457
     40 C         143.4065  141.1296  170.2204 C.3     1  UNL1        0.1960
     41 O         141.7823  140.4552  169.0342 O.2     1  UNL1       -0.1572
     42 O         143.7002  142.7576  168.8925 O.2     1  UNL1       -0.1572
@<TRIPOS>BOND
     1    10    11    1
     2    11     7    1
     3     7     8   am
     4     8     9    2
     5     8    12    1
     6    12    13    1
     7    13    14   ar
     8    14    15   ar
     9    15    16   ar
    10    16    19    1
    11    19    20    1
    12    19    21    2
    13    19    22    2
    14    16    17   ar
    15    17    18   ar
    16     7     1    1
    17     1     2    1
    18     2     3    1
    19     3     4    1
    20     4    23    1
    21    23    24    1
    22    25    24    1
    23    25    26    1
    24    26    27   ar
    25    27    28   ar
    26    28    29   ar
    27    29    30   ar
    28    30    31    1
    29    30    32   ar
    30    25    33    1
    31    33    34    1
    32    34    35    1
    33    35    36    1
    34    36    39    1
    35    39    40    1
    36    39    41    2
    37    39    42    2
    38    36    37    1
    39    37    38    1
    40     4     5    1
    41     5     6    1
    42    18    13   ar
    43     6     1    1
    44    32    26   ar
    45    38    33    1
