@<TRIPOS>MOLECULE
*****
 37 40 0 0 0
SMALL
GASTEIGER

@<TRIPOS>ATOM
      1 C         143.0448  143.4383  161.8341 C.ar    1  UNL1        0.0008
      2 C         144.0286  144.1550  162.7107 C.ar    1  UNL1       -0.0024
      3 C         143.5520  145.2042  163.6710 C.ar    1  UNL1        0.0028
      4 C         142.0917  145.5367  163.7546 C.ar    1  UNL1        0.0369
      5 C         141.1079  144.8199  162.8780 C.ar    1  UNL1        0.1389
      6 C         141.5845  143.7707  161.9177 C.ar    1  UNL1        0.0343
      7 C         143.5214  142.3891  160.8738 C.3     1  UNL1        0.1239
      8 C         142.0442  140.2543  160.7713 C.2     1  UNL1        0.4100
      9 O         140.9820  141.0242  160.0440 O.2     1  UNL1       -0.2258
     10 N         143.3139  140.9367  161.1862 N.am    1  UNL1       -0.2363
     11 O         141.8367  138.8019  161.0836 O.3     1  UNL1       -0.4101
     12 C         138.4862  137.1955  165.7945 C.3     1  UNL1        0.0310
     13 C         139.3239  137.5971  164.6168 C.ar    1  UNL1       -0.0217
     14 C         140.8178  137.6480  164.7415 C.ar    1  UNL1       -0.0011
     15 C         141.6554  138.0496  163.5638 C.ar    1  UNL1        0.0373
     16 C         140.9991  138.4003  162.2613 C.ar    1  UNL1        0.1500
     17 C         139.5052  138.3494  162.1367 C.ar    1  UNL1        0.0373
     18 C         138.6675  137.9478  163.3145 C.ar    1  UNL1       -0.0011
     19 C         144.3761  140.1668  161.9135 C.3     1  UNL1        0.1388
     20 C         144.9588  140.7100  163.1844 C.2     1  UNL1        0.0706
     21 O         146.1709  141.5924  163.1368 O.co2   1  UNL1       -0.5474
     22 O         144.3294  140.3708  164.5031 O.co2   1  UNL1       -0.5474
     23 O         139.6477  145.1524  162.9616 O.3     1  UNL1       -0.4672
     24 C         138.8541  144.7470  164.1682 C.3     1  UNL1        0.2702
     25 C         139.0466  143.3866  164.7702 C.ar    1  UNL1        0.1821
     26 O         139.9623  143.0480  165.9091 O.2     1  UNL1       -0.4355
     27 C         139.8389  141.5782  166.1818 C.ar    1  UNL1        0.2291
     28 N         138.8471  141.0083  165.2114 N.ar    1  UNL1       -0.2129
     29 C         138.3574  142.1260  164.3390 C.ar    1  UNL1        0.0964
     30 C         137.3546  142.0045  163.2301 C.3     1  UNL1        0.0552
     31 C         140.5777  140.8126  167.2391 C.ar    1  UNL1        0.0536
     32 C         139.9622  140.6196  168.5933 C.ar    1  UNL1        0.0055
     33 C         140.7009  139.8540  169.6508 C.ar    1  UNL1        0.0115
     34 C         142.0553  139.2814  169.3539 C.ar    1  UNL1        0.0577
     35 CL        142.7940  138.5158  170.4113 Cl      1  UNL1       -0.0822
     36 C         142.6707  139.4744  167.9997 C.ar    1  UNL1        0.0115
     37 C         141.9319  140.2400  166.9423 C.ar    1  UNL1        0.0055
@<TRIPOS>UNITY_ATOM_ATTR
21 1
charge -1
@<TRIPOS>BOND
     1    12    13    1
     2    13    14   ar
     3    14    15   ar
     4    15    16   ar
     5    16    11    1
     6    11     8    1
     7     8     9    2
     8     8    10   am
     9    10    19    1
    10    19    20    1
    11    20    21   ar
    12    20    22   ar
    13    10     7    1
    14     7     1    1
    15     1     2   ar
    16     2     3   ar
    17     3     4   ar
    18     4     5   ar
    19     5    23    1
    20    23    24    1
    21    24    25    1
    22    25    26   ar
    23    26    27   ar
    24    27    31    1
    25    31    32   ar
    26    32    33   ar
    27    33    34   ar
    28    34    35    1
    29    34    36   ar
    30    36    37   ar
    31    27    28   ar
    32    28    29   ar
    33    29    30    1
    34     5     6   ar
    35    16    17   ar
    36    17    18   ar
    37    18    13   ar
    38     6     1   ar
    39    29    25   ar
    40    37    31   ar
@<TRIPOS>MOLECULE
*****
 37 40 0 0 0
SMALL
GASTEIGER

@<TRIPOS>ATOM
      1 C         140.6876  142.3299  159.2289 C.ar    1  UNL1        0.0008
      2 C         139.9072  143.4160  158.5497 C.ar    1  UNL1       -0.0024
      3 C         140.1626  144.8527  158.8972 C.ar    1  UNL1        0.0028
      4 C         141.1984  145.2033  159.9239 C.ar    1  UNL1        0.0369
      5 C         141.9789  144.1172  160.6032 C.ar    1  UNL1        0.1389
      6 C         141.7235  142.6805  160.2557 C.ar    1  UNL1        0.0343
      7 C         140.4322  140.8933  158.8815 C.3     1  UNL1        0.1239
      8 C         141.1350  138.6628  160.0134 C.2     1  UNL1        0.4100
      9 O         142.1894  138.4632  158.9654 O.2     1  UNL1       -0.2258
     10 N         140.2563  139.8779  159.9714 N.am    1  UNL1       -0.2363
     11 O         140.9591  137.6474  161.1033 O.3     1  UNL1       -0.4101
     12 C         143.3344  138.6249  166.5256 C.3     1  UNL1        0.0310
     13 C         142.7406  138.3805  165.1700 C.ar    1  UNL1       -0.0217
     14 C         143.3373  139.0368  163.9604 C.ar    1  UNL1       -0.0011
     15 C         142.7435  138.7925  162.6049 C.ar    1  UNL1        0.0373
     16 C         141.5529  137.8917  162.4589 C.ar    1  UNL1        0.1500
     17 C         140.9562  137.2354  163.6685 C.ar    1  UNL1        0.0373
     18 C         141.5501  137.4798  165.0241 C.ar    1  UNL1       -0.0011
     19 C         139.2019  140.0774  161.0194 C.3     1  UNL1        0.1388
     20 C         137.9271  139.2891  160.9604 C.2     1  UNL1        0.0706
     21 O         136.8454  139.6832  159.9987 O.co2   1  UNL1       -0.5474
     22 O         137.7340  138.1068  161.8630 O.co2   1  UNL1       -0.5474
     23 O         143.0147  144.4678  161.6299 O.3     1  UNL1       -0.4672
     24 C         142.5973  144.8144  163.0283 C.3     1  UNL1        0.2702
     25 C         142.3395  143.7244  164.0260 C.ar    1  UNL1        0.1821
     26 O         141.0722  142.9330  164.1595 O.2     1  UNL1       -0.4355
     27 C         141.2531  141.9538  165.2814 C.ar    1  UNL1        0.2291
     28 N         142.6323  142.1400  165.8412 N.ar    1  UNL1       -0.2129
     29 C         143.3037  143.2343  165.0653 C.ar    1  UNL1        0.0964
     30 C         144.6950  143.7481  165.2894 C.3     1  UNL1        0.0552
     31 C         140.2339  140.9626  165.7594 C.ar    1  UNL1        0.0536
     32 C         140.1873  140.5740  167.2074 C.ar    1  UNL1        0.0055
     33 C         139.1681  139.5827  167.6856 C.ar    1  UNL1        0.0115
     34 C         138.1955  138.9801  166.7156 C.ar    1  UNL1        0.0577
     35 CL        137.1762  137.9888  167.1937 Cl      1  UNL1       -0.0822
     36 C         138.2421  139.3687  165.2676 C.ar    1  UNL1        0.0115
     37 C         139.2613  140.3600  164.7895 C.ar    1  UNL1        0.0055
@<TRIPOS>UNITY_ATOM_ATTR
21 1
charge -1
@<TRIPOS>BOND
     1    12    13    1
     2    13    14   ar
     3    14    15   ar
     4    15    16   ar
     5    16    11    1
     6    11     8    1
     7     8     9    2
     8     8    10   am
     9    10    19    1
    10    19    20    1
    11    20    21   ar
    12    20    22   ar
    13    10     7    1
    14     7     1    1
    15     1     2   ar
    16     2     3   ar
    17     3     4   ar
    18     4     5   ar
    19     5    23    1
    20    23    24    1
    21    24    25    1
    22    25    26   ar
    23    26    27   ar
    24    27    31    1
    25    31    32   ar
    26    32    33   ar
    27    33    34   ar
    28    34    35    1
    29    34    36   ar
    30    36    37   ar
    31    27    28   ar
    32    28    29   ar
    33    29    30    1
    34     5     6   ar
    35    16    17   ar
    36    17    18   ar
    37    18    13   ar
    38     6     1   ar
    39    29    25   ar
    40    37    31   ar
@<TRIPOS>MOLECULE
*****
 37 40 0 0 0
SMALL
GASTEIGER

@<TRIPOS>ATOM
      1 C         141.3141  144.8301  162.4010 C.ar    1  UNL1        0.0008
      2 C         141.9421  145.5526  163.5557 C.ar    1  UNL1       -0.0024
      3 C         143.3771  145.2968  163.9096 C.ar    1  UNL1        0.0028
      4 C         144.1841  144.3183  163.1088 C.ar    1  UNL1        0.0369
      5 C         143.5561  143.5957  161.9540 C.ar    1  UNL1        0.1389
      6 C         142.1210  143.8516  161.6001 C.ar    1  UNL1        0.0343
      7 C         139.8790  145.0860  162.0471 C.3     1  UNL1        0.1239
      8 C         138.5220  142.8868  161.7785 C.2     1  UNL1        0.4100
      9 O         139.3044  142.5550  160.5425 O.2     1  UNL1       -0.2258
     10 N         138.8093  144.1524  162.5308 N.am    1  UNL1       -0.2363
     11 O         137.4523  141.9532  162.2621 O.3     1  UNL1       -0.4101
     12 C         138.9112  137.2062  165.6292 C.3     1  UNL1        0.0310
     13 C         138.5465  138.3930  164.7874 C.ar    1  UNL1       -0.0217
     14 C         138.1125  139.6713  165.4413 C.ar    1  UNL1       -0.0011
     15 C         137.7478  140.8581  164.5995 C.ar    1  UNL1        0.0373
     16 C         137.8170  140.7665  163.1039 C.ar    1  UNL1        0.1500
     17 C         138.2510  139.4881  162.4501 C.ar    1  UNL1        0.0373
     18 C         138.6157  138.3014  163.2919 C.ar    1  UNL1       -0.0011
     19 C         138.0269  144.4842  163.7668 C.3     1  UNL1        0.1388
     20 C         138.7075  144.5011  165.1033 C.2     1  UNL1        0.0706
     21 O         139.8480  143.5657  165.3761 O.co2   1  UNL1       -0.5474
     22 O         138.2477  145.4534  166.1671 O.co2   1  UNL1       -0.5474
     23 O         144.3630  142.6172  161.1531 O.3     1  UNL1       -0.4672
     24 C         143.8632  141.2168  160.9558 C.3     1  UNL1        0.2702
     25 C         143.5082  140.3728  162.1438 C.ar    1  UNL1        0.1821
     26 O         143.1381  140.8794  163.5064 O.2     1  UNL1       -0.4355
     27 C         142.8620  139.6937  164.3826 C.ar    1  UNL1        0.2291
     28 N         143.0614  138.4541  163.5617 N.ar    1  UNL1       -0.2129
     29 C         143.4608  138.8739  162.1780 C.ar    1  UNL1        0.0964
     30 C         143.7601  137.9559  161.0301 C.3     1  UNL1        0.0552
     31 C         142.4575  139.7394  165.8263 C.ar    1  UNL1        0.0536
     32 C         141.3187  140.6146  166.2587 C.ar    1  UNL1        0.0055
     33 C         140.9142  140.6604  167.7024 C.ar    1  UNL1        0.0115
     34 C         141.6486  139.8309  168.7137 C.ar    1  UNL1        0.0577
     35 CL        141.2441  139.8766  170.1574 Cl      1  UNL1       -0.0822
     36 C         142.7874  138.9556  168.2812 C.ar    1  UNL1        0.0115
     37 C         143.1919  138.9099  166.8375 C.ar    1  UNL1        0.0055
@<TRIPOS>UNITY_ATOM_ATTR
21 1
charge -1
@<TRIPOS>BOND
     1    12    13    1
     2    13    14   ar
     3    14    15   ar
     4    15    16   ar
     5    16    11    1
     6    11     8    1
     7     8     9    2
     8     8    10   am
     9    10    19    1
    10    19    20    1
    11    20    21   ar
    12    20    22   ar
    13    10     7    1
    14     7     1    1
    15     1     2   ar
    16     2     3   ar
    17     3     4   ar
    18     4     5   ar
    19     5    23    1
    20    23    24    1
    21    24    25    1
    22    25    26   ar
    23    26    27   ar
    24    27    31    1
    25    31    32   ar
    26    32    33   ar
    27    33    34   ar
    28    34    35    1
    29    34    36   ar
    30    36    37   ar
    31    27    28   ar
    32    28    29   ar
    33    29    30    1
    34     5     6   ar
    35    16    17   ar
    36    17    18   ar
    37    18    13   ar
    38     6     1   ar
    39    29    25   ar
    40    37    31   ar
@<TRIPOS>MOLECULE
*****
 37 40 0 0 0
SMALL
GASTEIGER

@<TRIPOS>ATOM
      1 C         143.4172  143.5566  161.7924 C.ar    1  UNL1        0.0008
      2 C         144.2615  144.0345  162.9364 C.ar    1  UNL1       -0.0024
      3 C         143.7123  145.0392  163.9054 C.ar    1  UNL1        0.0028
      4 C         142.3188  145.5660  163.7305 C.ar    1  UNL1        0.0369
      5 C         141.4744  145.0880  162.5865 C.ar    1  UNL1        0.1389
      6 C         142.0236  144.0834  161.6175 C.ar    1  UNL1        0.0343
      7 C         143.9664  142.5519  160.8234 C.3     1  UNL1        0.1239
      8 C         144.0088  140.1603  161.8375 C.2     1  UNL1        0.4100
      9 O         145.0598  140.5938  162.8160 O.2     1  UNL1       -0.2258
     10 N         143.4621  141.1394  160.8412 N.am    1  UNL1       -0.2363
     11 O         143.5045  138.7477  161.8553 O.3     1  UNL1       -0.4101
     12 C         138.8028  137.2839  165.2831 C.3     1  UNL1        0.0310
     13 C         139.9782  137.6498  164.4262 C.ar    1  UNL1       -0.0217
     14 C         139.8427  137.6609  162.9323 C.ar    1  UNL1       -0.0011
     15 C         141.0182  138.0269  162.0754 C.ar    1  UNL1        0.0373
     16 C         142.3291  138.3818  162.7122 C.ar    1  UNL1        0.1500
     17 C         142.4646  138.3707  164.2061 C.ar    1  UNL1        0.0373
     18 C         141.2891  138.0047  165.0630 C.ar    1  UNL1       -0.0011
     19 C         142.4111  140.7058  159.8627 C.3     1  UNL1        0.1388
     20 C         142.8022  139.9489  158.6282 C.2     1  UNL1        0.0706
     21 O         141.7447  139.3489  157.7497 O.co2   1  UNL1       -0.5474
     22 O         144.2508  139.7920  158.2721 O.co2   1  UNL1       -0.5474
     23 O         140.0809  145.6148  162.4116 O.3     1  UNL1       -0.4672
     24 C         138.9204  144.8809  163.0154 C.3     1  UNL1        0.2702
     25 C         139.1378  143.5585  163.6892 C.ar    1  UNL1        0.1821
     26 O         139.8735  143.3357  164.9773 O.2     1  UNL1       -0.4355
     27 C         139.8481  141.8663  165.2774 C.ar    1  UNL1        0.2291
     28 N         139.0967  141.1808  164.1748 N.ar    1  UNL1       -0.2129
     29 C         138.6577  142.2268  163.1932 C.ar    1  UNL1        0.0964
     30 C         137.8760  141.9836  161.9364 C.3     1  UNL1        0.0552
     31 C         140.4656  141.1993  166.4706 C.ar    1  UNL1        0.0536
     32 C         139.5968  140.4901  167.4666 C.ar    1  UNL1        0.0055
     33 C         140.2143  139.8231  168.6599 C.ar    1  UNL1        0.0115
     34 C         141.7007  139.8654  168.8571 C.ar    1  UNL1        0.0577
     35 CL        142.3183  139.1984  170.0503 Cl      1  UNL1       -0.0822
     36 C         142.5695  140.5746  167.8610 C.ar    1  UNL1        0.0115
     37 C         141.9520  141.2416  166.6678 C.ar    1  UNL1        0.0055
@<TRIPOS>UNITY_ATOM_ATTR
21 1
charge -1
@<TRIPOS>BOND
     1    12    13    1
     2    13    14   ar
     3    14    15   ar
     4    15    16   ar
     5    16    11    1
     6    11     8    1
     7     8     9    2
     8     8    10   am
     9    10    19    1
    10    19    20    1
    11    20    21   ar
    12    20    22   ar
    13    10     7    1
    14     7     1    1
    15     1     2   ar
    16     2     3   ar
    17     3     4   ar
    18     4     5   ar
    19     5    23    1
    20    23    24    1
    21    24    25    1
    22    25    26   ar
    23    26    27   ar
    24    27    31    1
    25    31    32   ar
    26    32    33   ar
    27    33    34   ar
    28    34    35    1
    29    34    36   ar
    30    36    37   ar
    31    27    28   ar
    32    28    29   ar
    33    29    30    1
    34     5     6   ar
    35    16    17   ar
    36    17    18   ar
    37    18    13   ar
    38     6     1   ar
    39    29    25   ar
    40    37    31   ar
@<TRIPOS>MOLECULE
*****
 37 40 0 0 0
SMALL
GASTEIGER

@<TRIPOS>ATOM
      1 C         140.5990  142.1234  159.0424 C.ar    1  UNL1        0.0008
      2 C         141.8116  142.7928  158.4665 C.ar    1  UNL1       -0.0024
      3 C         142.1772  144.1821  158.8978 C.ar    1  UNL1        0.0028
      4 C         141.3303  144.9021  159.9050 C.ar    1  UNL1        0.0369
      5 C         140.1177  144.2327  160.4809 C.ar    1  UNL1        0.1389
      6 C         139.7521  142.8433  160.0496 C.ar    1  UNL1        0.0343
      7 C         140.2334  140.7340  158.6111 C.3     1  UNL1        0.1239
      8 C         138.8440  139.1468  160.1279 C.2     1  UNL1        0.4100
      9 O         137.5779  139.7739  159.6242 O.2     1  UNL1       -0.2258
     10 N         140.1718  139.6269  159.6213 N.am    1  UNL1       -0.2363
     11 O         138.7824  138.0397  161.1380 O.3     1  UNL1       -0.4101
     12 C         138.7122  139.3261  166.9980 C.3     1  UNL1        0.0310
     13 C         138.7297  139.0045  165.5331 C.ar    1  UNL1       -0.0217
     14 C         139.2956  137.6989  165.0585 C.ar    1  UNL1       -0.0011
     15 C         139.3132  137.3773  163.5936 C.ar    1  UNL1        0.0373
     16 C         138.7649  138.3613  162.6030 C.ar    1  UNL1        0.1500
     17 C         138.1990  139.6670  163.0775 C.ar    1  UNL1        0.0373
     18 C         138.1815  139.9885  164.5426 C.ar    1  UNL1       -0.0011
     19 C         141.4380  138.9998  160.1249 C.3     1  UNL1        0.1388
     20 C         142.5316  138.6413  159.1629 C.2     1  UNL1        0.0706
     21 O         142.2277  137.7914  157.9647 O.co2   1  UNL1       -0.5474
     22 O         143.9290  139.1326  159.3990 O.co2   1  UNL1       -0.5474
     23 O         139.2708  144.9526  161.4881 O.3     1  UNL1       -0.4672
     24 C         139.8479  145.3309  162.8200 C.3     1  UNL1        0.2702
     25 C         140.0284  144.2878  163.8827 C.ar    1  UNL1        0.1821
     26 O         141.0481  143.1875  163.8741 O.2     1  UNL1       -0.4355
     27 C         140.8708  142.3815  165.1267 C.ar    1  UNL1        0.2291
     28 N         139.7417  142.9835  165.9094 N.ar    1  UNL1       -0.2129
     29 C         139.2211  144.1617  165.1406 C.ar    1  UNL1        0.0964
     30 C         138.0914  145.0566  165.5566 C.3     1  UNL1        0.0552
     31 C         141.6805  141.1838  165.5263 C.ar    1  UNL1        0.0536
     32 C         142.0928  140.1783  164.4924 C.ar    1  UNL1        0.0055
     33 C         142.9026  138.9805  164.8920 C.ar    1  UNL1        0.0115
     34 C         143.3000  138.7883  166.3256 C.ar    1  UNL1        0.0577
     35 CL        144.1097  137.5905  166.7253 Cl      1  UNL1       -0.0822
     36 C         142.8877  139.7938  167.3595 C.ar    1  UNL1        0.0115
     37 C         142.0779  140.9916  166.9598 C.ar    1  UNL1        0.0055
@<TRIPOS>UNITY_ATOM_ATTR
21 1
charge -1
@<TRIPOS>BOND
     1    12    13    1
     2    13    14   ar
     3    14    15   ar
     4    15    16   ar
     5    16    11    1
     6    11     8    1
     7     8     9    2
     8     8    10   am
     9    10    19    1
    10    19    20    1
    11    20    21   ar
    12    20    22   ar
    13    10     7    1
    14     7     1    1
    15     1     2   ar
    16     2     3   ar
    17     3     4   ar
    18     4     5   ar
    19     5    23    1
    20    23    24    1
    21    24    25    1
    22    25    26   ar
    23    26    27   ar
    24    27    31    1
    25    31    32   ar
    26    32    33   ar
    27    33    34   ar
    28    34    35    1
    29    34    36   ar
    30    36    37   ar
    31    27    28   ar
    32    28    29   ar
    33    29    30    1
    34     5     6   ar
    35    16    17   ar
    36    17    18   ar
    37    18    13   ar
    38     6     1   ar
    39    29    25   ar
    40    37    31   ar
@<TRIPOS>MOLECULE
*****
 37 40 0 0 0
SMALL
GASTEIGER

@<TRIPOS>ATOM
      1 C         141.2204  144.5755  161.7180 C.ar    1  UNL1        0.0008
      2 C         141.1743  145.4773  162.9156 C.ar    1  UNL1       -0.0024
      3 C         142.3818  145.6201  163.7940 C.ar    1  UNL1        0.0028
      4 C         143.6354  144.8609  163.4747 C.ar    1  UNL1        0.0369
      5 C         143.6816  143.9590  162.2770 C.ar    1  UNL1        0.1389
      6 C         142.4741  143.8162  161.3986 C.ar    1  UNL1        0.0343
      7 C         140.0129  144.4327  160.8396 C.3     1  UNL1        0.1239
      8 C         138.1580  143.0677  162.0422 C.2     1  UNL1        0.4100
      9 O         138.0117  144.1615  163.0581 O.2     1  UNL1       -0.2258
     10 N         139.1586  143.2033  160.9329 N.am    1  UNL1       -0.2363
     11 O         137.3038  141.8383  162.1355 O.3     1  UNL1       -0.4101
     12 C         139.1234  137.1639  165.4278 C.3     1  UNL1        0.0310
     13 C         138.6685  138.3325  164.6047 C.ar    1  UNL1       -0.0217
     14 C         138.4232  139.6601  165.2584 C.ar    1  UNL1       -0.0011
     15 C         137.9683  140.8287  164.4354 C.ar    1  UNL1        0.0373
     16 C         137.7587  140.6697  162.9586 C.ar    1  UNL1        0.1500
     17 C         138.0040  139.3421  162.3049 C.ar    1  UNL1        0.0373
     18 C         138.4589  138.1735  163.1280 C.ar    1  UNL1       -0.0011
     19 C         139.3050  142.1095  159.9170 C.3     1  UNL1        0.1388
     20 C         140.3907  141.0857  160.0683 C.2     1  UNL1        0.0706
     21 O         140.9112  140.3605  158.8627 O.co2   1  UNL1       -0.5474
     22 O         140.9561  140.7870  161.4252 O.co2   1  UNL1       -0.5474
     23 O         144.9353  143.1998  161.9577 O.3     1  UNL1       -0.4672
     24 C         144.9844  141.7142  162.1593 C.3     1  UNL1        0.2702
     25 C         144.0633  141.0604  163.1462 C.ar    1  UNL1        0.1821
     26 O         143.4577  141.7131  164.3535 O.2     1  UNL1       -0.4355
     27 C         142.6061  140.6952  165.0526 C.ar    1  UNL1        0.2291
     28 N         142.6853  139.4134  164.2774 N.ar    1  UNL1       -0.2129
     29 C         143.5859  139.6391  163.0992 C.ar    1  UNL1        0.0964
     30 C         143.9459  138.6222  162.0570 C.3     1  UNL1        0.0552
     31 C         141.8143  140.9196  166.3065 C.ar    1  UNL1        0.0536
     32 C         141.2804  142.2854  166.6221 C.ar    1  UNL1        0.0055
     33 C         140.4886  142.5100  167.8761 C.ar    1  UNL1        0.0115
     34 C         140.2307  141.3686  168.8147 C.ar    1  UNL1        0.0577
     35 CL        139.4389  141.5931  170.0688 Cl      1  UNL1       -0.0822
     36 C         140.7646  140.0028  168.4992 C.ar    1  UNL1        0.0115
     37 C         141.5564  139.7783  167.2451 C.ar    1  UNL1        0.0055
@<TRIPOS>UNITY_ATOM_ATTR
21 1
charge -1
@<TRIPOS>BOND
     1    12    13    1
     2    13    14   ar
     3    14    15   ar
     4    15    16   ar
     5    16    11    1
     6    11     8    1
     7     8     9    2
     8     8    10   am
     9    10    19    1
    10    19    20    1
    11    20    21   ar
    12    20    22   ar
    13    10     7    1
    14     7     1    1
    15     1     2   ar
    16     2     3   ar
    17     3     4   ar
    18     4     5   ar
    19     5    23    1
    20    23    24    1
    21    24    25    1
    22    25    26   ar
    23    26    27   ar
    24    27    31    1
    25    31    32   ar
    26    32    33   ar
    27    33    34   ar
    28    34    35    1
    29    34    36   ar
    30    36    37   ar
    31    27    28   ar
    32    28    29   ar
    33    29    30    1
    34     5     6   ar
    35    16    17   ar
    36    17    18   ar
    37    18    13   ar
    38     6     1   ar
    39    29    25   ar
    40    37    31   ar
@<TRIPOS>MOLECULE
*****
 37 40 0 0 0
SMALL
GASTEIGER

@<TRIPOS>ATOM
      1 C         142.2609  141.7981  159.8689 C.ar    1  UNL1        0.0008
      2 C         142.8984  142.9753  159.1922 C.ar    1  UNL1       -0.0024
      3 C         142.0762  144.1850  158.8595 C.ar    1  UNL1        0.0028
      4 C         140.6166  144.2175  159.2033 C.ar    1  UNL1        0.0369
      5 C         139.9790  143.0403  159.8800 C.ar    1  UNL1        0.1389
      6 C         140.8011  141.8306  160.2127 C.ar    1  UNL1        0.0343
      7 C         143.0831  140.5885  160.2016 C.3     1  UNL1        0.1239
      8 C         142.6665  138.6093  161.8324 C.2     1  UNL1        0.4100
      9 O         142.2729  137.7391  160.6758 O.2     1  UNL1       -0.2258
     10 N         143.0715  140.0340  161.5953 N.am    1  UNL1       -0.2363
     11 O         142.6549  138.0548  163.2261 O.3     1  UNL1       -0.4101
     12 C         137.8373  138.8206  166.7194 C.3     1  UNL1        0.0310
     13 C         139.0417  138.6291  165.8461 C.ar    1  UNL1       -0.0217
     14 C         138.9449  137.7858  164.6094 C.ar    1  UNL1       -0.0011
     15 C         140.1493  137.5944  163.7361 C.ar    1  UNL1        0.0373
     16 C         141.4505  138.2463  164.0994 C.ar    1  UNL1        0.1500
     17 C         141.5472  139.0896  165.3361 C.ar    1  UNL1        0.0373
     18 C         140.3428  139.2810  166.2095 C.ar    1  UNL1       -0.0011
     19 C         143.4651  140.9042  162.7520 C.3     1  UNL1        0.1388
     20 C         144.8616  140.8427  163.2958 C.2     1  UNL1        0.0706
     21 O         145.1947  139.8844  164.4007 O.co2   1  UNL1       -0.5474
     22 O         145.9251  141.7394  162.7347 O.co2   1  UNL1       -0.5474
     23 O         138.5193  143.0728  160.2238 O.3     1  UNL1       -0.4672
     24 C         138.0827  142.9515  161.6537 C.3     1  UNL1        0.2702
     25 C         138.9948  143.3996  162.7570 C.ar    1  UNL1        0.1821
     26 O         139.5244  142.5406  163.8668 O.2     1  UNL1       -0.4355
     27 C         140.3944  143.3955  164.7399 C.ar    1  UNL1        0.2291
     28 N         140.4025  144.7830  164.1697 N.ar    1  UNL1       -0.2129
     29 C         139.5375  144.7855  162.9442 C.ar    1  UNL1        0.0964
     30 C         139.2633  145.9665  162.0609 C.3     1  UNL1        0.0552
     31 C         141.1275  142.9426  165.9676 C.ar    1  UNL1        0.0536
     32 C         140.3976  142.8113  167.2714 C.ar    1  UNL1        0.0055
     33 C         141.1306  142.3583  168.4992 C.ar    1  UNL1        0.0115
     34 C         142.5938  142.0367  168.4231 C.ar    1  UNL1        0.0577
     35 CL        143.3270  141.5837  169.6508 Cl      1  UNL1       -0.0822
     36 C         143.3238  142.1680  167.1193 C.ar    1  UNL1        0.0115
     37 C         142.5906  142.6210  165.8915 C.ar    1  UNL1        0.0055
@<TRIPOS>UNITY_ATOM_ATTR
21 1
charge -1
@<TRIPOS>BOND
     1    12    13    1
     2    13    14   ar
     3    14    15   ar
     4    15    16   ar
     5    16    11    1
     6    11     8    1
     7     8     9    2
     8     8    10   am
     9    10    19    1
    10    19    20    1
    11    20    21   ar
    12    20    22   ar
    13    10     7    1
    14     7     1    1
    15     1     2   ar
    16     2     3   ar
    17     3     4   ar
    18     4     5   ar
    19     5    23    1
    20    23    24    1
    21    24    25    1
    22    25    26   ar
    23    26    27   ar
    24    27    31    1
    25    31    32   ar
    26    32    33   ar
    27    33    34   ar
    28    34    35    1
    29    34    36   ar
    30    36    37   ar
    31    27    28   ar
    32    28    29   ar
    33    29    30    1
    34     5     6   ar
    35    16    17   ar
    36    17    18   ar
    37    18    13   ar
    38     6     1   ar
    39    29    25   ar
    40    37    31   ar
@<TRIPOS>MOLECULE
*****
 37 40 0 0 0
SMALL
GASTEIGER

@<TRIPOS>ATOM
      1 C         141.1619  142.4886  158.8195 C.ar    1  UNL1        0.0008
      2 C         140.4531  143.3025  157.7778 C.ar    1  UNL1       -0.0024
      3 C         140.0966  144.7324  158.0576 C.ar    1  UNL1        0.0028
      4 C         140.4490  145.3484  159.3790 C.ar    1  UNL1        0.0369
      5 C         141.1578  144.5345  160.4208 C.ar    1  UNL1        0.1389
      6 C         141.5143  143.1046  160.1410 C.ar    1  UNL1        0.0343
      7 C         141.5183  141.0587  158.5397 C.3     1  UNL1        0.1239
      8 C         141.3978  139.3062  160.4540 C.2     1  UNL1        0.4100
      9 O         142.7333  139.7660  160.9590 O.2     1  UNL1       -0.2258
     10 N         140.7903  139.9526  159.2443 N.am    1  UNL1       -0.2363
     11 O         140.6698  138.2001  161.1585 O.3     1  UNL1       -0.4101
     12 C         138.4628  139.0929  166.6659 C.3     1  UNL1        0.0310
     13 C         139.0145  138.8697  165.2891 C.ar    1  UNL1       -0.0217
     14 C         138.6905  139.8332  164.1860 C.ar    1  UNL1       -0.0011
     15 C         139.2423  139.6100  162.8092 C.ar    1  UNL1        0.0373
     16 C         140.1180  138.4233  162.5354 C.ar    1  UNL1        0.1500
     17 C         140.4420  137.4598  163.6385 C.ar    1  UNL1        0.0373
     18 C         139.8902  137.6831  165.0154 C.ar    1  UNL1       -0.0011
     19 C         139.4549  139.4927  158.7392 C.3     1  UNL1        0.1388
     20 C         138.2502  140.3727  158.8959 C.2     1  UNL1        0.0706
     21 O         138.1518  141.3085  160.0641 O.co2   1  UNL1       -0.5474
     22 O         137.1440  140.3168  157.8844 O.co2   1  UNL1       -0.5474
     23 O         141.5102  145.1505  161.7423 O.3     1  UNL1       -0.4672
     24 C         140.5111  145.1480  162.8612 C.3     1  UNL1        0.2702
     25 C         140.5788  144.0924  163.9247 C.ar    1  UNL1        0.1821
     26 O         141.5731  142.9712  163.9921 O.2     1  UNL1       -0.4355
     27 C         141.2730  142.1585  165.2166 C.ar    1  UNL1        0.2291
     28 N         140.0932  142.7773  165.9060 N.ar    1  UNL1       -0.2129
     29 C         139.6642  143.9725  165.1075 C.ar    1  UNL1        0.0964
     30 C         138.5212  144.8873  165.4345 C.3     1  UNL1        0.0552
     31 C         142.0212  140.9408  165.6718 C.ar    1  UNL1        0.0536
     32 C         142.8391  140.1532  164.6917 C.ar    1  UNL1        0.0055
     33 C         143.5874  138.9354  165.1468 C.ar    1  UNL1        0.0115
     34 C         143.5177  138.5053  166.5822 C.ar    1  UNL1        0.0577
     35 CL        144.2660  137.2875  167.0373 Cl      1  UNL1       -0.0822
     36 C         142.6998  139.2929  167.5623 C.ar    1  UNL1        0.0115
     37 C         141.9515  140.5107  167.1071 C.ar    1  UNL1        0.0055
@<TRIPOS>UNITY_ATOM_ATTR
21 1
charge -1
@<TRIPOS>BOND
     1    12    13    1
     2    13    14   ar
     3    14    15   ar
     4    15    16   ar
     5    16    11    1
     6    11     8    1
     7     8     9    2
     8     8    10   am
     9    10    19    1
    10    19    20    1
    11    20    21   ar
    12    20    22   ar
    13    10     7    1
    14     7     1    1
    15     1     2   ar
    16     2     3   ar
    17     3     4   ar
    18     4     5   ar
    19     5    23    1
    20    23    24    1
    21    24    25    1
    22    25    26   ar
    23    26    27   ar
    24    27    31    1
    25    31    32   ar
    26    32    33   ar
    27    33    34   ar
    28    34    35    1
    29    34    36   ar
    30    36    37   ar
    31    27    28   ar
    32    28    29   ar
    33    29    30    1
    34     5     6   ar
    35    16    17   ar
    36    17    18   ar
    37    18    13   ar
    38     6     1   ar
    39    29    25   ar
    40    37    31   ar
@<TRIPOS>MOLECULE
*****
 37 40 0 0 0
SMALL
GASTEIGER

@<TRIPOS>ATOM
      1 C         140.5121  142.3056  158.5789 C.ar    1  UNL1        0.0008
      2 C         141.8836  142.6327  158.0673 C.ar    1  UNL1       -0.0024
      3 C         142.5239  143.9420  158.4218 C.ar    1  UNL1        0.0028
      4 C         141.7926  144.9243  159.2880 C.ar    1  UNL1        0.0369
      5 C         140.4210  144.5973  159.7996 C.ar    1  UNL1        0.1389
      6 C         139.7807  143.2879  159.4451 C.ar    1  UNL1        0.0343
      7 C         139.8718  140.9963  158.2243 C.3     1  UNL1        0.1239
      8 C         139.6930  139.4546  160.3080 C.2     1  UNL1        0.4100
      9 O         138.7234  140.4129  160.9338 O.2     1  UNL1       -0.2258
     10 N         140.2672  139.7464  158.9532 N.am    1  UNL1       -0.2363
     11 O         140.0884  138.2047  161.0368 O.3     1  UNL1       -0.4101
     12 C         142.9735  138.5774  166.2844 C.3     1  UNL1        0.0310
     13 C         142.2522  138.4842  164.9725 C.ar    1  UNL1       -0.0217
     14 C         141.3046  137.3500  164.7165 C.ar    1  UNL1       -0.0011
     15 C         140.5833  137.2568  163.4047 C.ar    1  UNL1        0.0373
     16 C         140.8097  138.2979  162.3487 C.ar    1  UNL1        0.1500
     17 C         141.7573  139.4321  162.6047 C.ar    1  UNL1        0.0373
     18 C         142.4786  139.5253  163.9166 C.ar    1  UNL1       -0.0011
     19 C         141.2368  138.7881  158.3274 C.3     1  UNL1        0.1388
     20 C         142.6576  138.7392  158.8060 C.2     1  UNL1        0.0706
     21 O         143.0674  137.7293  159.8367 O.co2   1  UNL1       -0.5474
     22 O         143.6685  139.7000  158.2538 O.co2   1  UNL1       -0.5474
     23 O         139.6897  145.5795  160.6658 O.3     1  UNL1       -0.4672
     24 C         140.1461  145.8231  162.0738 C.3     1  UNL1        0.2702
     25 C         140.4363  144.6631  162.9794 C.ar    1  UNL1        0.1821
     26 O         139.4529  143.6181  163.4165 O.2     1  UNL1       -0.4355
     27 C         140.1697  142.6536  164.3142 C.ar    1  UNL1        0.2291
     28 N         141.5962  143.1023  164.4318 N.ar    1  UNL1       -0.2129
     29 C         141.7610  144.3443  163.6069 C.ar    1  UNL1        0.0964
     30 C         143.0279  145.1295  163.4389 C.3     1  UNL1        0.0552
     31 C         139.5661  141.4514  164.9776 C.ar    1  UNL1        0.0536
     32 C         138.5815  140.5991  164.2331 C.ar    1  UNL1        0.0055
     33 C         137.9778  139.3969  164.8965 C.ar    1  UNL1        0.0115
     34 C         138.3588  139.0469  166.3046 C.ar    1  UNL1        0.0577
     35 CL        137.7551  137.8446  166.9681 Cl      1  UNL1       -0.0822
     36 C         139.3434  139.8991  167.0490 C.ar    1  UNL1        0.0115
     37 C         139.9470  141.1014  166.3855 C.ar    1  UNL1        0.0055
@<TRIPOS>UNITY_ATOM_ATTR
21 1
charge -1
@<TRIPOS>BOND
     1    12    13    1
     2    13    14   ar
     3    14    15   ar
     4    15    16   ar
     5    16    11    1
     6    11     8    1
     7     8     9    2
     8     8    10   am
     9    10    19    1
    10    19    20    1
    11    20    21   ar
    12    20    22   ar
    13    10     7    1
    14     7     1    1
    15     1     2   ar
    16     2     3   ar
    17     3     4   ar
    18     4     5   ar
    19     5    23    1
    20    23    24    1
    21    24    25    1
    22    25    26   ar
    23    26    27   ar
    24    27    31    1
    25    31    32   ar
    26    32    33   ar
    27    33    34   ar
    28    34    35    1
    29    34    36   ar
    30    36    37   ar
    31    27    28   ar
    32    28    29   ar
    33    29    30    1
    34     5     6   ar
    35    16    17   ar
    36    17    18   ar
    37    18    13   ar
    38     6     1   ar
    39    29    25   ar
    40    37    31   ar
