@<TRIPOS>MOLECULE
*****
 30 34 0 0 0
SMALL
GASTEIGER

@<TRIPOS>ATOM
      1 N         141.7310  138.2751  158.7291 N.pl3   1  UNL1       -0.2781
      2 C         140.4187  138.9771  158.5419 C.3     1  UNL1        0.0954
      3 C         139.9156  139.3875  159.8940 C.3     1  UNL1        0.0430
      4 C         138.7936  140.0750  160.6141 C.3     1  UNL1        0.0955
      5 N         139.1014  140.0515  162.0820 N.am    1  UNL1       -0.2759
      6 C         138.2470  140.6287  163.1713 C.2     1  UNL1        0.2506
      7 O         136.9526  141.3057  162.8302 O.2     1  UNL1       -0.2699
      8 C         140.4137  139.3495  162.2692 C.3     1  UNL1        0.0955
      9 C         140.9169  138.9391  160.9170 C.3     1  UNL1        0.0430
     10 C         142.0389  138.2516  160.1969 C.3     1  UNL1        0.0954
     11 C         143.5847  134.1481  156.1734 C.3     1  UNL1        0.0522
     12 C         143.5123  135.6344  156.3618 C.ar    1  UNL1        0.0634
     13 C         144.2943  136.5436  155.4608 C.ar    1  UNL1        0.0296
     14 C         144.2219  138.0299  155.6492 C.ar    1  UNL1        0.0634
     15 C         145.0039  138.9391  154.7483 C.3     1  UNL1        0.0522
     16 N         143.3675  138.6070  156.7387 N.ar    1  UNL1       -0.2180
     17 C         142.5854  137.6979  157.6397 C.ar    1  UNL1        0.2195
     18 N         142.6578  136.2116  157.4513 N.ar    1  UNL1       -0.2180
     19 C         138.6869  140.5290  164.6019 C.ar    1  UNL1        0.0752
     20 C         138.3214  139.3238  165.4167 C.ar    1  UNL1        0.0062
     21 C         138.7613  139.2240  166.8473 C.ar    1  UNL1        0.0026
     22 C         139.5668  140.3294  167.4631 C.ar    1  UNL1        0.0313
     23 C         139.9324  141.5347  166.6483 C.ar    1  UNL1        0.1595
     24 F         140.7378  142.6400  167.2641 F       1  UNL1       -0.2025
     25 C         139.4925  141.6344  165.2178 C.ar    1  UNL1        0.1345
     26 N         139.8580  142.8396  164.4030 N.ar    1  UNL1       -0.1454
     27 N         141.1347  143.0336  163.6396 N.ar    1  UNL1       -0.1446
     28 C         141.0768  144.3763  162.9734 C.ar    1  UNL1        0.1446
     29 C         139.7644  145.0120  163.3249 C.ar    1  UNL1        0.1446
     30 N         139.0113  144.0623  164.2084 N.ar    1  UNL1       -0.1446
@<TRIPOS>BOND
     1    11    12    1
     2    12    13   ar
     3    13    14   ar
     4    14    15    1
     5    14    16   ar
     6    16    17   ar
     7    17     1    1
     8     1     2    1
     9     3     2    1
    10     3     4    1
    11     4     5    1
    12     5     6   am
    13     6     7    2
    14     6    19    1
    15    19    20   ar
    16    20    21   ar
    17    21    22   ar
    18    22    23   ar
    19    23    24    1
    20    23    25   ar
    21    25    26    1
    22    26    27   ar
    23    27    28   ar
    24    28    29   ar
    25    29    30   ar
    26     5     8    1
    27     9     8    1
    28     9    10    1
    29    17    18   ar
    30    18    12   ar
    31    10     1    1
    32     9     3    1
    33    25    19   ar
    34    30    26   ar
@<TRIPOS>MOLECULE
*****
 30 34 0 0 0
SMALL
GASTEIGER

@<TRIPOS>ATOM
      1 N         137.9916  140.7172  158.6054 N.pl3   1  UNL1       -0.2781
      2 C         138.8656  139.4985  158.6380 C.3     1  UNL1        0.0954
      3 C         139.1953  139.2029  160.0712 C.3     1  UNL1        0.0430
      4 C         139.9393  138.2671  160.9771 C.3     1  UNL1        0.0955
      5 N         139.7289  138.7246  162.3901 N.am    1  UNL1       -0.2759
      6 C         140.2934  138.0773  163.6198 C.2     1  UNL1        0.2506
      7 O         141.1560  136.8563  163.4959 O.2     1  UNL1       -0.2699
      8 C         138.8549  139.9434  162.3574 C.3     1  UNL1        0.0955
      9 C         138.5252  140.2389  160.9242 C.3     1  UNL1        0.0430
     10 C         137.7812  141.1748  160.0183 C.3     1  UNL1        0.0954
     11 C         137.7788  144.7520  155.3382 C.3     1  UNL1        0.0522
     12 C         137.3207  143.3820  155.7421 C.ar    1  UNL1        0.0634
     13 C         136.2981  142.6594  154.9162 C.ar    1  UNL1        0.0296
     14 C         135.8400  141.2893  155.3200 C.ar    1  UNL1        0.0634
     15 C         134.8174  140.5667  154.4942 C.3     1  UNL1        0.0522
     16 N         136.4045  140.6420  156.5498 N.ar    1  UNL1       -0.2180
     17 C         137.4271  141.3646  157.3757 C.ar    1  UNL1        0.2195
     18 N         137.8852  142.7346  156.9718 N.ar    1  UNL1       -0.2180
     19 C         139.9953  138.6507  164.9734 C.ar    1  UNL1        0.0752
     20 C         138.6519  138.4286  165.6027 C.ar    1  UNL1        0.0062
     21 C         138.3538  139.0021  166.9564 C.ar    1  UNL1        0.0026
     22 C         139.3990  139.7976  167.6806 C.ar    1  UNL1        0.0313
     23 C         140.7424  140.0197  167.0513 C.ar    1  UNL1        0.1595
     24 F         141.7876  140.8152  167.7756 F       1  UNL1       -0.2025
     25 C         141.0405  139.4463  165.6977 C.ar    1  UNL1        0.1345
     26 N         142.3839  139.6684  165.0684 N.ar    1  UNL1       -0.1454
     27 N         142.7321  140.7536  164.0931 N.ar    1  UNL1       -0.1446
     28 C         144.1783  140.6001  163.7258 C.ar    1  UNL1        0.1446
     29 C         144.7239  139.4201  164.4741 C.ar    1  UNL1        0.1446
     30 N         143.6149  138.8443  165.3038 N.ar    1  UNL1       -0.1446
@<TRIPOS>BOND
     1    11    12    1
     2    12    13   ar
     3    13    14   ar
     4    14    15    1
     5    14    16   ar
     6    16    17   ar
     7    17     1    1
     8     1     2    1
     9     3     2    1
    10     3     4    1
    11     4     5    1
    12     5     6   am
    13     6     7    2
    14     6    19    1
    15    19    20   ar
    16    20    21   ar
    17    21    22   ar
    18    22    23   ar
    19    23    24    1
    20    23    25   ar
    21    25    26    1
    22    26    27   ar
    23    27    28   ar
    24    28    29   ar
    25    29    30   ar
    26     5     8    1
    27     9     8    1
    28     9    10    1
    29    17    18   ar
    30    18    12   ar
    31    10     1    1
    32     9     3    1
    33    25    19   ar
    34    30    26   ar
@<TRIPOS>MOLECULE
*****
 30 34 0 0 0
SMALL
GASTEIGER

@<TRIPOS>ATOM
      1 N         140.9026  144.3283  159.2963 N.pl3   1  UNL1       -0.2781
      2 C         141.4428  144.9370  160.5563 C.3     1  UNL1        0.0954
      3 C         141.1989  143.9722  161.6787 C.3     1  UNL1        0.0430
      4 C         141.3819  143.7522  163.1511 C.3     1  UNL1        0.0955
      5 N         140.8042  142.4112  163.4948 N.am    1  UNL1       -0.2759
      6 C         140.7722  141.7884  164.8589 C.2     1  UNL1        0.2506
      7 O         141.3546  142.5204  166.0316 O.2     1  UNL1       -0.2699
      8 C         140.2640  141.8025  162.2347 C.3     1  UNL1        0.0955
      9 C         140.5079  142.7673  161.1123 C.3     1  UNL1        0.0430
     10 C         140.3249  142.9873  159.6399 C.3     1  UNL1        0.0954
     11 C         138.9524  147.6707  155.8286 C.3     1  UNL1        0.0522
     12 C         139.9595  146.6223  156.1982 C.ar    1  UNL1        0.0634
     13 C         140.9986  146.1968  155.2036 C.ar    1  UNL1        0.0296
     14 C         142.0057  145.1485  155.5732 C.ar    1  UNL1        0.0634
     15 C         143.0448  144.7229  154.5787 C.3     1  UNL1        0.0522
     16 N         141.9736  144.5256  156.9375 N.ar    1  UNL1       -0.2180
     17 C         140.9346  144.9511  157.9321 C.ar    1  UNL1        0.2195
     18 N         139.9275  145.9995  157.5625 N.ar    1  UNL1       -0.2180
     19 C         140.1579  140.4334  165.0506 C.ar    1  UNL1        0.0752
     20 C         138.7416  140.3131  165.5298 C.ar    1  UNL1        0.0062
     21 C         138.1273  138.9581  165.7214 C.ar    1  UNL1        0.0026
     22 C         138.9291  137.7236  165.4339 C.ar    1  UNL1        0.0313
     23 C         140.3455  137.8439  164.9546 C.ar    1  UNL1        0.1595
     24 F         141.1474  136.6093  164.6671 F       1  UNL1       -0.2025
     25 C         140.9598  139.1988  164.7630 C.ar    1  UNL1        0.1345
     26 N         142.3761  139.3191  164.2838 N.ar    1  UNL1       -0.1454
     27 N         143.5928  139.4463  165.1518 N.ar    1  UNL1       -0.1446
     28 C         144.7930  139.5392  164.2569 C.ar    1  UNL1        0.1446
     29 C         144.3181  139.4695  162.8358 C.ar    1  UNL1        0.1446
     30 N         142.8244  139.3335  162.8524 N.ar    1  UNL1       -0.1446
@<TRIPOS>BOND
     1    11    12    1
     2    12    13   ar
     3    13    14   ar
     4    14    15    1
     5    14    16   ar
     6    16    17   ar
     7    17     1    1
     8     1     2    1
     9     3     2    1
    10     3     4    1
    11     4     5    1
    12     5     6   am
    13     6     7    2
    14     6    19    1
    15    19    20   ar
    16    20    21   ar
    17    21    22   ar
    18    22    23   ar
    19    23    24    1
    20    23    25   ar
    21    25    26    1
    22    26    27   ar
    23    27    28   ar
    24    28    29   ar
    25    29    30   ar
    26     5     8    1
    27     9     8    1
    28     9    10    1
    29    17    18   ar
    30    18    12   ar
    31    10     1    1
    32     9     3    1
    33    25    19   ar
    34    30    26   ar
@<TRIPOS>MOLECULE
*****
 30 34 0 0 0
SMALL
GASTEIGER

@<TRIPOS>ATOM
      1 N         140.7018  144.2250  158.3241 N.pl3   1  UNL1       -0.2781
      2 C         142.1725  143.9547  158.2053 C.3     1  UNL1        0.0954
      3 C         142.6554  143.4300  159.5249 C.3     1  UNL1        0.0430
      4 C         143.8628  142.9387  160.2671 C.3     1  UNL1        0.0955
      5 N         143.4369  142.5811  161.6602 N.am    1  UNL1       -0.2759
      6 C         144.3255  142.0470  162.7441 C.2     1  UNL1        0.2506
      7 O         145.7850  141.8266  162.4769 O.2     1  UNL1       -0.2699
      8 C         141.9662  142.8515  161.7791 C.3     1  UNL1        0.0955
      9 C         141.4832  143.3762  160.4594 C.3     1  UNL1        0.0430
     10 C         140.2759  143.8675  159.7172 C.3     1  UNL1        0.0954
     11 C         139.0856  148.1847  155.3731 C.3     1  UNL1        0.0522
     12 C         139.0050  146.7390  155.7646 C.ar    1  UNL1        0.0634
     13 C         138.0357  145.8274  155.0723 C.ar    1  UNL1        0.0296
     14 C         137.9551  144.3816  155.4638 C.ar    1  UNL1        0.0634
     15 C         136.9858  143.4700  154.7715 C.3     1  UNL1        0.0522
     16 N         138.8438  143.8476  156.5478 N.ar    1  UNL1       -0.2180
     17 C         139.8131  144.7592  157.2402 C.ar    1  UNL1        0.2195
     18 N         139.8938  146.2049  156.8486 N.ar    1  UNL1       -0.2180
     19 C         143.7547  141.7333  164.0954 C.ar    1  UNL1        0.0752
     20 C         143.8934  142.7209  165.2158 C.ar    1  UNL1        0.0062
     21 C         143.3227  142.4072  166.5671 C.ar    1  UNL1        0.0026
     22 C         142.6133  141.1060  166.7979 C.ar    1  UNL1        0.0313
     23 C         142.4745  140.1183  165.6775 C.ar    1  UNL1        0.1595
     24 F         141.7652  138.8170  165.9083 F       1  UNL1       -0.2025
     25 C         143.0453  140.4320  164.3263 C.ar    1  UNL1        0.1345
     26 N         142.9066  139.4444  163.2058 N.ar    1  UNL1       -0.1454
     27 N         144.0147  138.6310  162.6052 N.ar    1  UNL1       -0.1446
     28 C         143.4284  137.7807  161.5175 C.ar    1  UNL1        0.1446
     29 C         141.9580  138.0684  161.4459 C.ar    1  UNL1        0.1446
     30 N         141.6356  139.0966  162.4893 N.ar    1  UNL1       -0.1446
@<TRIPOS>BOND
     1    11    12    1
     2    12    13   ar
     3    13    14   ar
     4    14    15    1
     5    14    16   ar
     6    16    17   ar
     7    17     1    1
     8     1     2    1
     9     3     2    1
    10     3     4    1
    11     4     5    1
    12     5     6   am
    13     6     7    2
    14     6    19    1
    15    19    20   ar
    16    20    21   ar
    17    21    22   ar
    18    22    23   ar
    19    23    24    1
    20    23    25   ar
    21    25    26    1
    22    26    27   ar
    23    27    28   ar
    24    28    29   ar
    25    29    30   ar
    26     5     8    1
    27     9     8    1
    28     9    10    1
    29    17    18   ar
    30    18    12   ar
    31    10     1    1
    32     9     3    1
    33    25    19   ar
    34    30    26   ar
@<TRIPOS>MOLECULE
*****
 30 34 0 0 0
SMALL
GASTEIGER

@<TRIPOS>ATOM
      1 N         142.0289  138.0095  158.1135 N.pl3   1  UNL1       -0.2781
      2 C         140.6706  138.3227  158.6674 C.3     1  UNL1        0.0954
      3 C         140.8487  139.2420  159.8393 C.3     1  UNL1        0.0430
      4 C         140.1192  140.0037  160.9059 C.3     1  UNL1        0.0955
      5 N         141.1367  140.7294  161.7354 N.am    1  UNL1       -0.2759
      6 C         140.8469  141.6131  162.9122 C.2     1  UNL1        0.2506
      7 O         139.4303  141.8342  163.3533 O.2     1  UNL1       -0.2699
      8 C         142.4951  140.4162  161.1814 C.3     1  UNL1        0.0955
      9 C         142.3170  139.4969  160.0095 C.3     1  UNL1        0.0430
     10 C         143.0465  138.7353  158.9429 C.3     1  UNL1        0.0954
     11 C         143.8800  133.5571  156.1772 C.3     1  UNL1        0.0522
     12 C         143.2444  134.8996  155.9684 C.ar    1  UNL1        0.0634
     13 C         142.8986  135.3584  154.5828 C.ar    1  UNL1        0.0296
     14 C         142.2630  136.7009  154.3740 C.ar    1  UNL1        0.0634
     15 C         141.9173  137.1598  152.9885 C.3     1  UNL1        0.0522
     16 N         141.9731  137.5846  155.5510 N.ar    1  UNL1       -0.2180
     17 C         142.3188  137.1258  156.9366 C.ar    1  UNL1        0.2195
     18 N         142.9545  135.7833  157.1454 N.ar    1  UNL1       -0.2180
     19 C         141.9735  142.2758  163.6481 C.ar    1  UNL1        0.0752
     20 C         142.6590  141.5587  164.7732 C.ar    1  UNL1        0.0062
     21 C         143.7857  142.2214  165.5091 C.ar    1  UNL1        0.0026
     22 C         144.2268  143.6011  165.1199 C.ar    1  UNL1        0.0313
     23 C         143.5414  144.3183  163.9948 C.ar    1  UNL1        0.1595
     24 F         143.9825  145.6981  163.6056 F       1  UNL1       -0.2025
     25 C         142.4147  143.6556  163.2589 C.ar    1  UNL1        0.1345
     26 N         141.7293  144.3728  162.1338 N.ar    1  UNL1       -0.1454
     27 N         140.4811  145.1974  162.2444 N.ar    1  UNL1       -0.1446
     28 C         140.1520  145.7254  160.8796 C.ar    1  UNL1        0.1446
     29 C         141.1968  145.2272  159.9255 C.ar    1  UNL1        0.1446
     30 N         142.1715  144.3912  160.7007 N.ar    1  UNL1       -0.1446
@<TRIPOS>BOND
     1    11    12    1
     2    12    13   ar
     3    13    14   ar
     4    14    15    1
     5    14    16   ar
     6    16    17   ar
     7    17     1    1
     8     1     2    1
     9     3     2    1
    10     3     4    1
    11     4     5    1
    12     5     6   am
    13     6     7    2
    14     6    19    1
    15    19    20   ar
    16    20    21   ar
    17    21    22   ar
    18    22    23   ar
    19    23    24    1
    20    23    25   ar
    21    25    26    1
    22    26    27   ar
    23    27    28   ar
    24    28    29   ar
    25    29    30   ar
    26     5     8    1
    27     9     8    1
    28     9    10    1
    29    17    18   ar
    30    18    12   ar
    31    10     1    1
    32     9     3    1
    33    25    19   ar
    34    30    26   ar
@<TRIPOS>MOLECULE
*****
 30 34 0 0 0
SMALL
GASTEIGER

@<TRIPOS>ATOM
      1 N         142.8640  143.4520  161.8585 N.pl3   1  UNL1       -0.2781
      2 C         144.0815  143.5497  162.7291 C.3     1  UNL1        0.0954
      3 C         143.6637  143.2730  164.1429 C.3     1  UNL1        0.0430
      4 C         144.1579  143.1624  165.5549 C.3     1  UNL1        0.0955
      5 N         142.9876  142.8253  166.4306 N.am    1  UNL1       -0.2759
      6 C         143.0278  142.6217  167.9161 C.2     1  UNL1        0.2506
      7 O         144.3260  142.7526  168.6563 O.2     1  UNL1       -0.2699
      8 C         141.7701  142.7276  165.5599 C.3     1  UNL1        0.0955
      9 C         142.1879  143.0043  164.1461 C.3     1  UNL1        0.0430
     10 C         141.6937  143.1149  162.7341 C.3     1  UNL1        0.0954
     11 C         144.5468  142.2173  157.0999 C.3     1  UNL1        0.0522
     12 C         143.6651  143.0383  157.9936 C.ar    1  UNL1        0.0634
     13 C         142.7433  144.0629  157.4017 C.ar    1  UNL1        0.0296
     14 C         141.8617  144.8838  158.2954 C.ar    1  UNL1        0.0634
     15 C         140.9398  145.9085  157.7036 C.3     1  UNL1        0.0522
     16 N         141.9019  144.6802  159.7810 N.ar    1  UNL1       -0.2180
     17 C         142.8238  143.6556  160.3729 C.ar    1  UNL1        0.2195
     18 N         143.7054  142.8346  159.4792 N.ar    1  UNL1       -0.2180
     19 C         141.7699  142.2873  168.6616 C.ar    1  UNL1        0.0752
     20 C         141.1699  143.2860  169.6063 C.ar    1  UNL1        0.0062
     21 C         139.9119  142.9515  170.3519 C.ar    1  UNL1        0.0026
     22 C         139.2540  141.6184  170.1527 C.ar    1  UNL1        0.0313
     23 C         139.8540  140.6195  169.2079 C.ar    1  UNL1        0.1595
     24 F         139.1961  139.2864  169.0087 F       1  UNL1       -0.2025
     25 C         141.1119  140.9540  168.4624 C.ar    1  UNL1        0.1345
     26 N         141.7119  139.9553  167.5177 N.ar    1  UNL1       -0.1454
     27 N         141.1047  139.4852  166.2291 N.ar    1  UNL1       -0.1446
     28 C         142.0420  138.4907  165.6107 C.ar    1  UNL1        0.1446
     29 C         143.2284  138.3461  166.5170 C.ar    1  UNL1        0.1446
     30 N         143.0244  139.2513  167.6955 N.ar    1  UNL1       -0.1446
@<TRIPOS>BOND
     1    11    12    1
     2    12    13   ar
     3    13    14   ar
     4    14    15    1
     5    14    16   ar
     6    16    17   ar
     7    17     1    1
     8     1     2    1
     9     3     2    1
    10     3     4    1
    11     4     5    1
    12     5     6   am
    13     6     7    2
    14     6    19    1
    15    19    20   ar
    16    20    21   ar
    17    21    22   ar
    18    22    23   ar
    19    23    24    1
    20    23    25   ar
    21    25    26    1
    22    26    27   ar
    23    27    28   ar
    24    28    29   ar
    25    29    30   ar
    26     5     8    1
    27     9     8    1
    28     9    10    1
    29    17    18   ar
    30    18    12   ar
    31    10     1    1
    32     9     3    1
    33    25    19   ar
    34    30    26   ar
@<TRIPOS>MOLECULE
*****
 30 34 0 0 0
SMALL
GASTEIGER

@<TRIPOS>ATOM
      1 N         143.0422  142.2868  161.4730 N.pl3   1  UNL1       -0.2781
      2 C         143.3741  140.8984  161.9338 C.3     1  UNL1        0.0954
      3 C         143.1785  140.8442  163.4199 C.3     1  UNL1        0.0430
      4 C         143.2626  139.9526  164.6233 C.3     1  UNL1        0.0955
      5 N         142.8619  140.7564  165.8247 N.am    1  UNL1       -0.2759
      6 C         142.8034  140.2592  167.2386 C.2     1  UNL1        0.2506
      7 O         143.1661  138.8372  167.5493 O.2     1  UNL1       -0.2699
      8 C         142.5301  142.1448  165.3639 C.3     1  UNL1        0.0955
      9 C         142.7257  142.1990  163.8777 C.3     1  UNL1        0.0430
     10 C         142.6416  143.0906  162.6743 C.3     1  UNL1        0.0954
     11 C         144.7286  141.7659  156.5858 C.3     1  UNL1        0.0522
     12 C         143.9440  142.5236  157.6154 C.ar    1  UNL1        0.0634
     13 C         143.2179  143.7787  157.2310 C.ar    1  UNL1        0.0296
     14 C         142.4333  144.5364  158.2607 C.ar    1  UNL1        0.0634
     15 C         141.7072  145.7914  157.8764 C.3     1  UNL1        0.0522
     16 N         142.3748  144.0390  159.6746 N.ar    1  UNL1       -0.2180
     17 C         143.1008  142.7840  160.0590 C.ar    1  UNL1        0.2195
     18 N         143.8855  142.0263  159.0294 N.ar    1  UNL1       -0.2180
     19 C         142.3820  141.1838  168.3420 C.ar    1  UNL1        0.0752
     20 C         143.4145  141.9551  169.1095 C.ar    1  UNL1        0.0062
     21 C         142.9932  142.8798  170.2130 C.ar    1  UNL1        0.0026
     22 C         141.5394  143.0332  170.5488 C.ar    1  UNL1        0.0313
     23 C         140.5068  142.2620  169.7813 C.ar    1  UNL1        0.1595
     24 F         139.0531  142.4155  170.1171 F       1  UNL1       -0.2025
     25 C         140.9282  141.3374  168.6779 C.ar    1  UNL1        0.1345
     26 N         139.8956  140.5661  167.9104 N.ar    1  UNL1       -0.1454
     27 N         139.5745  140.7303  166.4544 N.ar    1  UNL1       -0.1446
     28 C         138.4834  139.7610  166.1082 C.ar    1  UNL1        0.1446
     29 C         138.1302  138.9978  167.3502 C.ar    1  UNL1        0.1446
     30 N         139.0030  139.4954  168.4640 N.ar    1  UNL1       -0.1446
@<TRIPOS>BOND
     1    11    12    1
     2    12    13   ar
     3    13    14   ar
     4    14    15    1
     5    14    16   ar
     6    16    17   ar
     7    17     1    1
     8     1     2    1
     9     3     2    1
    10     3     4    1
    11     4     5    1
    12     5     6   am
    13     6     7    2
    14     6    19    1
    15    19    20   ar
    16    20    21   ar
    17    21    22   ar
    18    22    23   ar
    19    23    24    1
    20    23    25   ar
    21    25    26    1
    22    26    27   ar
    23    27    28   ar
    24    28    29   ar
    25    29    30   ar
    26     5     8    1
    27     9     8    1
    28     9    10    1
    29    17    18   ar
    30    18    12   ar
    31    10     1    1
    32     9     3    1
    33    25    19   ar
    34    30    26   ar
@<TRIPOS>MOLECULE
*****
 30 34 0 0 0
SMALL
GASTEIGER

@<TRIPOS>ATOM
      1 N         142.2768  138.6674  159.0148 N.pl3   1  UNL1       -0.2781
      2 C         143.3446  139.7208  159.0310 C.3     1  UNL1        0.0954
      3 C         143.2509  140.4557  160.3353 C.3     1  UNL1        0.0430
      4 C         143.8529  141.5609  161.1514 C.3     1  UNL1        0.0955
      5 N         143.0993  141.6450  162.4456 N.am    1  UNL1       -0.2759
      6 C         143.3665  142.6124  163.5603 C.2     1  UNL1        0.2506
      7 O         144.4750  143.6150  163.4337 O.2     1  UNL1       -0.2699
      8 C         142.0314  140.5916  162.4293 C.3     1  UNL1        0.0955
      9 C         142.1251  139.8566  161.1251 C.3     1  UNL1        0.0430
     10 C         141.5231  138.7514  160.3090 C.3     1  UNL1        0.0954
     11 C         143.7250  134.5665  156.1714 C.3     1  UNL1        0.0522
     12 C         142.7336  135.6495  156.4784 C.ar    1  UNL1        0.0634
     13 C         141.4750  135.7651  155.6706 C.ar    1  UNL1        0.0296
     14 C         140.4836  136.8481  155.9776 C.ar    1  UNL1        0.0634
     15 C         139.2250  136.9637  155.1699 C.3     1  UNL1        0.0522
     16 N         140.7509  137.8155  157.0923 N.ar    1  UNL1       -0.2180
     17 C         142.0096  137.7000  157.9001 C.ar    1  UNL1        0.2195
     18 N         143.0009  136.6170  157.5931 N.ar    1  UNL1       -0.2180
     19 C         142.5252  142.5773  164.8016 C.ar    1  UNL1        0.0752
     20 C         143.0022  141.8273  166.0099 C.ar    1  UNL1        0.0062
     21 C         142.1608  141.7922  167.2514 C.ar    1  UNL1        0.0026
     22 C         140.8427  142.5071  167.2845 C.ar    1  UNL1        0.0313
     23 C         140.3656  143.2572  166.0762 C.ar    1  UNL1        0.1595
     24 F         139.0474  143.9720  166.1093 F       1  UNL1       -0.2025
     25 C         141.2069  143.2922  164.8348 C.ar    1  UNL1        0.1345
     26 N         140.7299  144.0422  163.6265 N.ar    1  UNL1       -0.1454
     27 N         141.0925  145.4519  163.2638 N.ar    1  UNL1       -0.1446
     28 C         140.3933  145.7951  161.9819 C.ar    1  UNL1        0.1446
     29 C         139.5986  144.5977  161.5523 C.ar    1  UNL1        0.1446
     30 N         139.8067  143.5144  162.5687 N.ar    1  UNL1       -0.1446
@<TRIPOS>BOND
     1    11    12    1
     2    12    13   ar
     3    13    14   ar
     4    14    15    1
     5    14    16   ar
     6    16    17   ar
     7    17     1    1
     8     1     2    1
     9     3     2    1
    10     3     4    1
    11     4     5    1
    12     5     6   am
    13     6     7    2
    14     6    19    1
    15    19    20   ar
    16    20    21   ar
    17    21    22   ar
    18    22    23   ar
    19    23    24    1
    20    23    25   ar
    21    25    26    1
    22    26    27   ar
    23    27    28   ar
    24    28    29   ar
    25    29    30   ar
    26     5     8    1
    27     9     8    1
    28     9    10    1
    29    17    18   ar
    30    18    12   ar
    31    10     1    1
    32     9     3    1
    33    25    19   ar
    34    30    26   ar
@<TRIPOS>MOLECULE
*****
 30 34 0 0 0
SMALL
GASTEIGER

@<TRIPOS>ATOM
      1 N         140.1519  138.8216  158.5404 N.pl3   1  UNL1       -0.2781
      2 C         139.2386  138.6631  159.7196 C.3     1  UNL1        0.0954
      3 C         139.6776  139.6300  160.7791 C.3     1  UNL1        0.0430
      4 C         139.3845  140.1296  162.1627 C.3     1  UNL1        0.0955
      5 N         140.3880  141.1943  162.4935 N.am    1  UNL1       -0.2759
      6 C         140.4648  141.9652  163.7778 C.2     1  UNL1        0.2506
      7 O         139.4771  141.6961  164.8743 O.2     1  UNL1       -0.2699
      8 C         141.3014  141.3527  161.3141 C.3     1  UNL1        0.0955
      9 C         140.8623  140.3859  160.2546 C.3     1  UNL1        0.0430
     10 C         141.1554  139.8863  158.8710 C.3     1  UNL1        0.0954
     11 C         137.6185  137.5948  154.1727 C.3     1  UNL1        0.0522
     12 C         138.8085  137.4372  155.0721 C.ar    1  UNL1        0.0634
     13 C         139.9219  136.5087  154.6870 C.ar    1  UNL1        0.0296
     14 C         141.1120  136.3511  155.5864 C.ar    1  UNL1        0.0634
     15 C         142.2254  135.4227  155.2015 C.3     1  UNL1        0.0522
     16 N         141.1886  137.1221  156.8709 N.ar    1  UNL1       -0.2180
     17 C         140.0752  138.0506  157.2559 C.ar    1  UNL1        0.2195
     18 N         138.8852  138.2082  156.3565 N.ar    1  UNL1       -0.2180
     19 C         141.5291  143.0054  163.9658 C.ar    1  UNL1        0.0752
     20 C         141.2879  144.4153  163.5143 C.ar    1  UNL1        0.0062
     21 C         142.3522  145.4555  163.7023 C.ar    1  UNL1        0.0026
     22 C         143.6576  145.0858  164.3418 C.ar    1  UNL1        0.0313
     23 C         143.8989  143.6758  164.7934 C.ar    1  UNL1        0.1595
     24 F         145.2043  143.3060  165.4329 F       1  UNL1       -0.2025
     25 C         142.8346  142.6356  164.6054 C.ar    1  UNL1        0.1345
     26 N         143.0757  141.2257  165.0569 N.ar    1  UNL1       -0.1454
     27 N         143.7571  140.1502  164.2637 N.ar    1  UNL1       -0.1446
     28 C         143.7804  138.9035  165.0975 C.ar    1  UNL1        0.1446
     29 C         143.1134  139.2085  166.4060 C.ar    1  UNL1        0.1446
     30 N         142.6779  140.6436  166.3809 N.ar    1  UNL1       -0.1446
@<TRIPOS>BOND
     1    11    12    1
     2    12    13   ar
     3    13    14   ar
     4    14    15    1
     5    14    16   ar
     6    16    17   ar
     7    17     1    1
     8     1     2    1
     9     3     2    1
    10     3     4    1
    11     4     5    1
    12     5     6   am
    13     6     7    2
    14     6    19    1
    15    19    20   ar
    16    20    21   ar
    17    21    22   ar
    18    22    23   ar
    19    23    24    1
    20    23    25   ar
    21    25    26    1
    22    26    27   ar
    23    27    28   ar
    24    28    29   ar
    25    29    30   ar
    26     5     8    1
    27     9     8    1
    28     9    10    1
    29    17    18   ar
    30    18    12   ar
    31    10     1    1
    32     9     3    1
    33    25    19   ar
    34    30    26   ar
