@<TRIPOS>MOLECULE
*****
 31 34 0 0 0
SMALL
GASTEIGER

@<TRIPOS>ATOM
      1 C         142.6430  141.6468  165.6656 C.ar    1  UNL1        0.0831
      2 C         142.2834  142.8844  164.8981 C.ar    1  UNL1        0.0249
      3 C         143.1158  142.9144  163.6505 C.ar    1  UNL1        0.0668
      4 C         143.1907  143.8943  162.5173 C.ar    1  UNL1        0.1333
      5 N         144.1397  143.6552  161.3805 N.ar    1  UNL1       -0.2108
      6 C         145.0136  142.4361  161.3770 C.ar    1  UNL1        0.1773
      7 N         144.9386  141.4562  162.5102 N.ar    1  UNL1       -0.3214
      8 C         143.9897  141.6953  163.6470 C.ar    1  UNL1        0.1443
      9 N         143.6975  140.9119  164.8923 N.ar    1  UNL1       -0.2284
     10 H         145.5122  140.6561  162.5078 H       1  UNL1        0.1689
     11 C         140.8696  140.3637  169.5973 C.ar    1  UNL1        0.0070
     12 C         140.3258  141.5675  168.8865 C.ar    1  UNL1       -0.0018
     13 C         140.9169  141.9952  167.5759 C.ar    1  UNL1        0.0013
     14 C         142.0518  141.2191  166.9762 C.ar    1  UNL1        0.0177
     15 C         142.5956  140.0154  167.6870 C.ar    1  UNL1        0.0013
     16 C         142.0045  139.5877  168.9976 C.ar    1  UNL1       -0.0018
     17 O         140.6888  140.6242  172.1760 O.3     1  UNL1       -0.3772
     18 C         140.2784  139.9360  170.9079 C.3     1  UNL1        0.1636
     19 H         140.2167  140.2292  172.9256 H       1  UNL1        0.2109
     20 N         142.3167  145.1134  162.5209 N.pl3   1  UNL1       -0.3139
     21 H         142.6565  145.9616  162.8875 H       1  UNL1        0.1485
     22 CA        140.9251  145.0402  161.9660 C.3     1  UNL1        0.1227
     23 C         139.8013  144.5383  162.8234 C.ar    1  UNL1       -0.0021
     24 C         138.8256  143.5408  162.2728 C.ar    1  UNL1       -0.0026
     25 C         137.7017  143.0389  163.1301 C.ar    1  UNL1       -0.0003
     26 C         137.5535  143.5345  164.5381 C.ar    1  UNL1       -0.0000
     27 C         138.5292  144.5319  165.0888 C.ar    1  UNL1       -0.0003
     28 C         139.6531  145.0339  164.2314 C.ar    1  UNL1       -0.0026
     29 C         140.6573  145.4688  160.5537 C.3     1  UNL1        0.1611
     30 O         141.7914  145.5937  159.5800 O.3     1  UNL1       -0.3799
     31 H         142.3795  146.3128  159.8591 H       1  UNL1        0.2105
@<TRIPOS>BOND
     1    17    18    1
     2    18    11    1
     3    11    12   ar
     4    12    13   ar
     5    13    14   ar
     6    14     1    1
     7     1     2   ar
     8     2     3   ar
     9     3     4   ar
    10     4    20    1
    11    20    22    1
    12    22    29    1
    13    29    30    1
    14    22    23    1
    15    23    24   ar
    16    24    25   ar
    17    25    26   ar
    18    26    27   ar
    19    27    28   ar
    20     4     5   ar
    21     5     6   ar
    22     6     7   ar
    23     7     8   ar
    24     8     9   ar
    25    14    15   ar
    26    15    16   ar
    27    16    11   ar
    28     9     1   ar
    29     8     3    1
    30    28    23   ar
    31    17    19    1
    32    20    21    1
    33    30    31    1
    34     7    10    1
@<TRIPOS>MOLECULE
*****
 31 34 0 0 0
SMALL
GASTEIGER

@<TRIPOS>ATOM
      1 C         139.6002  140.0680  165.6787 C.ar    1  UNL1        0.0831
      2 C         140.5966  139.2738  164.8873 C.ar    1  UNL1        0.0249
      3 C         139.9505  138.8779  163.5927 C.ar    1  UNL1        0.0668
      4 C         140.4528  138.0880  162.4206 C.ar    1  UNL1        0.1333
      5 N         139.5595  137.8476  161.2399 N.ar    1  UNL1       -0.2108
      6 C         138.1638  138.3970  161.2313 C.ar    1  UNL1        0.1773
      7 N         137.6614  139.1869  162.4034 N.ar    1  UNL1       -0.3214
      8 C         138.5548  139.4273  163.5841 C.ar    1  UNL1        0.1443
      9 N         138.3383  140.1628  164.8733 N.ar    1  UNL1       -0.2284
     10 H         136.7454  139.5475  162.3977 H       1  UNL1        0.1689
     11 C         140.2774  141.8524  169.7539 C.ar    1  UNL1        0.0070
     12 C         140.7119  142.5981  168.5270 C.ar    1  UNL1       -0.0018
     13 C         140.4861  142.0033  167.1686 C.ar    1  UNL1        0.0013
     14 C         139.8259  140.6628  167.0372 C.ar    1  UNL1        0.0177
     15 C         139.3914  139.9172  168.2640 C.ar    1  UNL1        0.0013
     16 C         139.6172  140.5120  169.6224 C.ar    1  UNL1       -0.0018
     17 O         141.7938  142.1986  171.8349 O.3     1  UNL1       -0.3772
     18 C         140.5031  142.4473  171.1123 C.3     1  UNL1        0.1636
     19 H         141.7767  142.6513  172.6926 H       1  UNL1        0.2109
     20 N         141.8486  137.5386  162.4292 N.pl3   1  UNL1       -0.3139
     21 H         142.0525  136.7205  162.9376 H       1  UNL1        0.1485
     22 CA        142.9337  138.2357  161.6633 C.3     1  UNL1        0.1227
     23 C         143.7893  139.2638  162.3423 C.ar    1  UNL1       -0.0021
     24 C         144.1957  140.5060  161.6062 C.ar    1  UNL1       -0.0026
     25 C         145.0512  141.5341  162.2852 C.ar    1  UNL1       -0.0003
     26 C         145.5003  141.3201  163.7002 C.ar    1  UNL1       -0.0000
     27 C         145.0940  140.0779  164.4363 C.ar    1  UNL1       -0.0003
     28 C         144.2384  139.0497  163.7574 C.ar    1  UNL1       -0.0026
     29 C         143.1633  137.9046  160.2184 C.3     1  UNL1        0.1611
     30 O         142.0395  138.0291  159.2327 O.3     1  UNL1       -0.3799
     31 H         141.3526  137.3768  159.4416 H       1  UNL1        0.2105
@<TRIPOS>BOND
     1    17    18    1
     2    18    11    1
     3    11    12   ar
     4    12    13   ar
     5    13    14   ar
     6    14     1    1
     7     1     2   ar
     8     2     3   ar
     9     3     4   ar
    10     4    20    1
    11    20    22    1
    12    22    29    1
    13    29    30    1
    14    22    23    1
    15    23    24   ar
    16    24    25   ar
    17    25    26   ar
    18    26    27   ar
    19    27    28   ar
    20     4     5   ar
    21     5     6   ar
    22     6     7   ar
    23     7     8   ar
    24     8     9   ar
    25    14    15   ar
    26    15    16   ar
    27    16    11   ar
    28     9     1   ar
    29     8     3    1
    30    28    23   ar
    31    17    19    1
    32    20    21    1
    33    30    31    1
    34     7    10    1
@<TRIPOS>MOLECULE
*****
 31 34 0 0 0
SMALL
GASTEIGER

@<TRIPOS>ATOM
      1 C         140.3198  143.2318  165.7135 C.ar    1  UNL1        0.0831
      2 C         141.5052  143.3698  164.8048 C.ar    1  UNL1        0.0249
      3 C         141.1111  144.2556  163.6601 C.ar    1  UNL1        0.0668
      4 C         141.8689  144.7422  162.4606 C.ar    1  UNL1        0.1333
      5 N         141.1977  145.6382  161.4623 N.ar    1  UNL1       -0.2108
      6 C         139.7688  146.0476  161.6636 C.ar    1  UNL1        0.1773
      7 N         139.0111  145.5610  162.8631 N.ar    1  UNL1       -0.3214
      8 C         139.6822  144.6650  163.8614 C.ar    1  UNL1        0.1443
      9 N         139.1931  144.0323  165.1305 N.ar    1  UNL1       -0.2284
     10 H         138.0732  145.8298  162.9952 H       1  UNL1        0.1689
     11 C         140.1697  140.8369  169.5203 C.ar    1  UNL1        0.0070
     12 C         140.3359  142.3266  169.5775 C.ar    1  UNL1       -0.0018
     13 C         140.3859  143.1249  168.3086 C.ar    1  UNL1        0.0013
     14 C         140.2698  142.4335  166.9825 C.ar    1  UNL1        0.0177
     15 C         140.1036  140.9438  166.9254 C.ar    1  UNL1        0.0013
     16 C         140.0536  140.1455  168.1943 C.ar    1  UNL1       -0.0018
     17 O         140.6859  140.6079  172.0563 O.3     1  UNL1       -0.3772
     18 C         140.1197  140.0386  170.7893 C.3     1  UNL1        0.1636
     19 H         140.5735  139.9682  172.7768 H       1  UNL1        0.2109
     20 N         143.2979  144.3327  162.2593 N.pl3   1  UNL1       -0.3139
     21 H         144.0261  144.9198  162.5663 H       1  UNL1        0.1485
     22 CA        143.6172  143.0287  161.5903 C.3     1  UNL1        0.1227
     23 C         143.8517  141.7993  162.4170 C.ar    1  UNL1       -0.0021
     24 C         145.1096  141.6663  163.2233 C.ar    1  UNL1       -0.0026
     25 C         145.3441  140.4369  164.0500 C.ar    1  UNL1       -0.0003
     26 C         144.3208  139.3404  164.0705 C.ar    1  UNL1       -0.0000
     27 C         143.0629  139.4733  163.2642 C.ar    1  UNL1       -0.0003
     28 C         142.8284  140.7028  162.4374 C.ar    1  UNL1       -0.0026
     29 C         143.7021  142.9542  160.0945 C.3     1  UNL1        0.1611
     30 O         142.8784  143.8802  159.2495 O.3     1  UNL1       -0.3799
     31 H         141.9377  143.6762  159.3691 H       1  UNL1        0.2105
@<TRIPOS>BOND
     1    17    18    1
     2    18    11    1
     3    11    12   ar
     4    12    13   ar
     5    13    14   ar
     6    14     1    1
     7     1     2   ar
     8     2     3   ar
     9     3     4   ar
    10     4    20    1
    11    20    22    1
    12    22    29    1
    13    29    30    1
    14    22    23    1
    15    23    24   ar
    16    24    25   ar
    17    25    26   ar
    18    26    27   ar
    19    27    28   ar
    20     4     5   ar
    21     5     6   ar
    22     6     7   ar
    23     7     8   ar
    24     8     9   ar
    25    14    15   ar
    26    15    16   ar
    27    16    11   ar
    28     9     1   ar
    29     8     3    1
    30    28    23   ar
    31    17    19    1
    32    20    21    1
    33    30    31    1
    34     7    10    1
@<TRIPOS>MOLECULE
*****
 31 34 0 0 0
SMALL
GASTEIGER

@<TRIPOS>ATOM
      1 C         139.3927  141.3346  165.7018 C.ar    1  UNL1        0.0831
      2 C         139.3930  142.5021  164.7601 C.ar    1  UNL1        0.0249
      3 C         138.8890  142.0251  163.4302 C.ar    1  UNL1        0.0668
      4 C         138.6737  142.7334  162.1256 C.ar    1  UNL1        0.1333
      5 N         138.1468  141.9793  160.9409 N.ar    1  UNL1       -0.2108
      6 C         137.8351  140.5170  161.0607 C.ar    1  UNL1        0.1773
      7 N         138.0504  139.8087  162.3653 N.ar    1  UNL1       -0.3214
      8 C         138.5774  140.5627  163.5500 C.ar    1  UNL1        0.1443
      9 N         138.8886  140.1360  164.9540 N.ar    1  UNL1       -0.2284
     10 H         137.8458  138.8489  162.4439 H       1  UNL1        0.1689
     11 C         140.6784  141.4139  170.0135 C.ar    1  UNL1        0.0070
     12 C         139.8992  140.2464  169.4845 C.ar    1  UNL1       -0.0018
     13 C         139.4706  140.2199  168.0474 C.ar    1  UNL1        0.0013
     14 C         139.8213  141.3610  167.1391 C.ar    1  UNL1        0.0177
     15 C         140.6005  142.5285  167.6680 C.ar    1  UNL1        0.0013
     16 C         141.0291  142.5549  169.1052 C.ar    1  UNL1       -0.0018
     17 O         142.3430  140.7059  171.8785 O.3     1  UNL1       -0.3772
     18 C         141.1070  141.4402  171.4508 C.3     1  UNL1        0.1636
     19 H         142.4760  140.8247  172.8319 H       1  UNL1        0.2109
     20 N         138.9854  144.1958  162.0058 N.pl3   1  UNL1       -0.3139
     21 H         138.3035  144.8654  162.2421 H       1  UNL1        0.1485
     22 CA        140.3361  144.6379  161.5260 C.3     1  UNL1        0.1227
     23 C         141.5555  144.3535  162.3519 C.ar    1  UNL1       -0.0021
     24 C         141.9790  145.3171  163.4206 C.ar    1  UNL1       -0.0026
     25 C         143.1984  145.0327  164.2465 C.ar    1  UNL1       -0.0003
     26 C         143.9944  143.7848  164.0037 C.ar    1  UNL1       -0.0000
     27 C         143.5710  142.8212  162.9350 C.ar    1  UNL1       -0.0003
     28 C         142.3515  143.1055  162.1091 C.ar    1  UNL1       -0.0026
     29 C         140.4673  145.3643  160.2202 C.3     1  UNL1        0.1611
     30 O         141.8259  145.6248  159.6401 O.3     1  UNL1       -0.3799
     31 H         142.3113  146.2364  160.2156 H       1  UNL1        0.2105
@<TRIPOS>BOND
     1    17    18    1
     2    18    11    1
     3    11    12   ar
     4    12    13   ar
     5    13    14   ar
     6    14     1    1
     7     1     2   ar
     8     2     3   ar
     9     3     4   ar
    10     4    20    1
    11    20    22    1
    12    22    29    1
    13    29    30    1
    14    22    23    1
    15    23    24   ar
    16    24    25   ar
    17    25    26   ar
    18    26    27   ar
    19    27    28   ar
    20     4     5   ar
    21     5     6   ar
    22     6     7   ar
    23     7     8   ar
    24     8     9   ar
    25    14    15   ar
    26    15    16   ar
    27    16    11   ar
    28     9     1   ar
    29     8     3    1
    30    28    23   ar
    31    17    19    1
    32    20    21    1
    33    30    31    1
    34     7    10    1
@<TRIPOS>MOLECULE
*****
 31 34 0 0 0
SMALL
GASTEIGER

@<TRIPOS>ATOM
      1 C         141.0841  143.0424  165.8335 C.ar    1  UNL1        0.0831
      2 C         142.0512  143.3419  164.7267 C.ar    1  UNL1        0.0249
      3 C         141.3277  144.1388  163.6819 C.ar    1  UNL1        0.0668
      4 C         141.7740  144.7136  162.3703 C.ar    1  UNL1        0.1333
      5 N         140.8061  145.4814  161.5197 N.ar    1  UNL1       -0.2108
      6 C         139.3919  145.6744  161.9808 C.ar    1  UNL1        0.1773
      7 N         138.9456  145.0996  163.2924 N.ar    1  UNL1       -0.3214
      8 C         139.9135  144.3318  164.1430 C.ar    1  UNL1        0.1443
      9 N         139.7629  143.6542  165.4727 N.ar    1  UNL1       -0.2284
     10 H         138.0173  145.2263  163.5950 H       1  UNL1        0.1689
     11 C         141.9874  140.7170  169.5786 C.ar    1  UNL1        0.0070
     12 C         142.6167  140.3168  168.2772 C.ar    1  UNL1       -0.0018
     13 C         142.3156  141.0919  167.0288 C.ar    1  UNL1        0.0013
     14 C         141.3852  142.2672  167.0819 C.ar    1  UNL1        0.0177
     15 C         140.7560  142.6675  168.3834 C.ar    1  UNL1        0.0013
     16 C         141.0571  141.8924  169.6317 C.ar    1  UNL1       -0.0018
     17 O         143.7095  139.6265  171.1897 O.3     1  UNL1       -0.3772
     18 C         142.2886  139.9418  170.8271 C.3     1  UNL1        0.1636
     19 H         143.7276  139.1238  172.0191 H       1  UNL1        0.2109
     20 N         143.1884  144.5205  161.9092 N.pl3   1  UNL1       -0.3139
     21 H         143.8376  145.2560  161.9912 H       1  UNL1        0.1485
     22 CA        143.6134  143.2068  161.3232 C.3     1  UNL1        0.1227
     23 C         144.0296  142.0828  162.2251 C.ar    1  UNL1       -0.0021
     24 C         143.2138  140.8253  162.2818 C.ar    1  UNL1       -0.0026
     25 C         143.6299  139.7013  163.1836 C.ar    1  UNL1       -0.0003
     26 C         144.8619  139.8348  164.0289 C.ar    1  UNL1       -0.0000
     27 C         145.6777  141.0922  163.9723 C.ar    1  UNL1       -0.0003
     28 C         145.2615  142.2163  163.0704 C.ar    1  UNL1       -0.0026
     29 C         143.6223  143.0171  159.8352 C.3     1  UNL1        0.1611
     30 O         142.8714  143.9700  158.9532 O.3     1  UNL1       -0.3799
     31 H         141.9199  143.8853  159.1219 H       1  UNL1        0.2105
@<TRIPOS>BOND
     1    17    18    1
     2    18    11    1
     3    11    12   ar
     4    12    13   ar
     5    13    14   ar
     6    14     1    1
     7     1     2   ar
     8     2     3   ar
     9     3     4   ar
    10     4    20    1
    11    20    22    1
    12    22    29    1
    13    29    30    1
    14    22    23    1
    15    23    24   ar
    16    24    25   ar
    17    25    26   ar
    18    26    27   ar
    19    27    28   ar
    20     4     5   ar
    21     5     6   ar
    22     6     7   ar
    23     7     8   ar
    24     8     9   ar
    25    14    15   ar
    26    15    16   ar
    27    16    11   ar
    28     9     1   ar
    29     8     3    1
    30    28    23   ar
    31    17    19    1
    32    20    21    1
    33    30    31    1
    34     7    10    1
@<TRIPOS>MOLECULE
*****
 31 34 0 0 0
SMALL
GASTEIGER

@<TRIPOS>ATOM
      1 C         143.1756  141.3730  165.8517 C.ar    1  UNL1        0.0831
      2 C         143.3889  140.2184  164.9183 C.ar    1  UNL1        0.0249
      3 C         143.9026  140.7622  163.6181 C.ar    1  UNL1        0.0668
      4 C         144.2890  140.0925  162.3327 C.ar    1  UNL1        0.1333
      5 N         144.7795  140.9135  161.1772 N.ar    1  UNL1       -0.2108
      6 C         144.8838  142.4042  161.3071 C.ar    1  UNL1        0.1773
      7 N         144.4974  143.0739  162.5925 N.ar    1  UNL1       -0.3214
      8 C         144.0069  142.2529  163.7480 C.ar    1  UNL1        0.1443
      9 N         143.5576  142.6304  165.1285 N.ar    1  UNL1       -0.2284
     10 H         144.5659  144.0523  162.6778 H       1  UNL1        0.1689
     11 C         141.6567  141.1108  170.0795 C.ar    1  UNL1        0.0070
     12 C         142.5624  142.2365  169.6764 C.ar    1  UNL1       -0.0018
     13 C         143.0687  142.3239  168.2672 C.ar    1  UNL1        0.0013
     14 C         142.6693  141.2856  167.2610 C.ar    1  UNL1        0.0177
     15 C         141.7636  140.1599  167.6641 C.ar    1  UNL1        0.0013
     16 C         141.2573  140.0725  169.0734 C.ar    1  UNL1       -0.0018
     17 O         140.4733  142.2053  172.1171 O.3     1  UNL1       -0.3772
     18 C         141.1504  141.0235  171.4888 C.3     1  UNL1        0.1636
     19 H         140.2092  141.9825  173.0235 H       1  UNL1        0.2109
     20 N         144.1847  138.6017  162.2029 N.pl3   1  UNL1       -0.3139
     21 H         144.9135  138.0269  162.5308 H       1  UNL1        0.1485
     22 CA        142.9699  137.9869  161.5733 C.3     1  UNL1        0.1227
     23 C         141.6959  137.8722  162.3566 C.ar    1  UNL1       -0.0021
     24 C         140.3763  138.0963  161.6794 C.ar    1  UNL1       -0.0026
     25 C         139.1023  137.9817  162.4627 C.ar    1  UNL1       -0.0003
     26 C         139.1477  137.6429  163.9232 C.ar    1  UNL1       -0.0000
     27 C         140.4672  137.4188  164.6005 C.ar    1  UNL1       -0.0003
     28 C         141.7413  137.5335  163.8171 C.ar    1  UNL1       -0.0026
     29 C         143.0293  137.4867  160.1603 C.3     1  UNL1        0.1611
     30 O         142.9249  138.4529  159.0177 O.3     1  UNL1       -0.3799
     31 H         142.0408  138.8521  159.0116 H       1  UNL1        0.2105
@<TRIPOS>BOND
     1    17    18    1
     2    18    11    1
     3    11    12   ar
     4    12    13   ar
     5    13    14   ar
     6    14     1    1
     7     1     2   ar
     8     2     3   ar
     9     3     4   ar
    10     4    20    1
    11    20    22    1
    12    22    29    1
    13    29    30    1
    14    22    23    1
    15    23    24   ar
    16    24    25   ar
    17    25    26   ar
    18    26    27   ar
    19    27    28   ar
    20     4     5   ar
    21     5     6   ar
    22     6     7   ar
    23     7     8   ar
    24     8     9   ar
    25    14    15   ar
    26    15    16   ar
    27    16    11   ar
    28     9     1   ar
    29     8     3    1
    30    28    23   ar
    31    17    19    1
    32    20    21    1
    33    30    31    1
    34     7    10    1
@<TRIPOS>MOLECULE
*****
 31 34 0 0 0
SMALL
GASTEIGER

@<TRIPOS>ATOM
      1 C         140.2511  139.5521  165.4247 C.ar    1  UNL1        0.0831
      2 C         140.5698  140.4229  164.2457 C.ar    1  UNL1        0.0249
      3 C         139.9982  139.7722  163.0209 C.ar    1  UNL1        0.0668
      4 C         140.0028  140.1744  161.5758 C.ar    1  UNL1        0.1333
      5 N         139.3355  139.3036  160.5529 N.ar    1  UNL1       -0.2108
      6 C         138.6635  138.0308  160.9750 C.ar    1  UNL1        0.1773
      7 N         138.6589  137.6286  162.4201 N.ar    1  UNL1       -0.3214
      8 C         139.3263  138.4993  163.4430 C.ar    1  UNL1        0.1443
      9 N         139.4825  138.3633  164.9286 N.ar    1  UNL1       -0.2284
     10 H         138.2179  136.7931  162.6971 H       1  UNL1        0.1689
     11 C         141.3990  140.3636  169.6994 C.ar    1  UNL1        0.0070
     12 C         139.9517  140.2811  169.3143 C.ar    1  UNL1       -0.0018
     13 C         139.5690  140.0106  167.8894 C.ar    1  UNL1        0.0013
     14 C         140.6337  139.8226  166.8497 C.ar    1  UNL1        0.0177
     15 C         142.0811  139.9051  167.2348 C.ar    1  UNL1        0.0013
     16 C         142.4637  140.1756  168.6597 C.ar    1  UNL1       -0.0018
     17 O         140.7341  140.6204  172.1978 O.3     1  UNL1       -0.3772
     18 C         141.7817  140.6341  171.1244 C.3     1  UNL1        0.1636
     19 H         141.1464  140.8127  173.0545 H       1  UNL1        0.2109
     20 N         140.6748  141.4473  161.1537 N.pl3   1  UNL1       -0.3139
     21 H         141.6231  141.4391  160.8893 H       1  UNL1        0.1485
     22 CA        139.9019  142.7327  161.1345 C.3     1  UNL1        0.1227
     23 C         139.4990  143.3849  162.4238 C.ar    1  UNL1       -0.0021
     24 C         140.5347  144.0402  163.2886 C.ar    1  UNL1       -0.0026
     25 C         140.1318  144.6924  164.5779 C.ar    1  UNL1       -0.0003
     26 C         138.6931  144.6894  165.0023 C.ar    1  UNL1       -0.0000
     27 C         137.6574  144.0342  164.1376 C.ar    1  UNL1       -0.0003
     28 C         138.0603  143.3819  162.8483 C.ar    1  UNL1       -0.0026
     29 C         139.5319  143.3659  159.8259 C.3     1  UNL1        0.1611
     30 O         138.2970  142.9209  159.1000 O.3     1  UNL1       -0.3799
     31 H         138.4058  142.0015  158.8105 H       1  UNL1        0.2105
@<TRIPOS>BOND
     1    17    18    1
     2    18    11    1
     3    11    12   ar
     4    12    13   ar
     5    13    14   ar
     6    14     1    1
     7     1     2   ar
     8     2     3   ar
     9     3     4   ar
    10     4    20    1
    11    20    22    1
    12    22    29    1
    13    29    30    1
    14    22    23    1
    15    23    24   ar
    16    24    25   ar
    17    25    26   ar
    18    26    27   ar
    19    27    28   ar
    20     4     5   ar
    21     5     6   ar
    22     6     7   ar
    23     7     8   ar
    24     8     9   ar
    25    14    15   ar
    26    15    16   ar
    27    16    11   ar
    28     9     1   ar
    29     8     3    1
    30    28    23   ar
    31    17    19    1
    32    20    21    1
    33    30    31    1
    34     7    10    1
@<TRIPOS>MOLECULE
*****
 31 34 0 0 0
SMALL
GASTEIGER

@<TRIPOS>ATOM
      1 C         142.6965  140.2434  165.5471 C.ar    1  UNL1        0.0831
      2 C         141.9586  140.8874  164.4110 C.ar    1  UNL1        0.0249
      3 C         142.5637  140.3980  163.1286 C.ar    1  UNL1        0.0668
      4 C         142.2459  140.6919  161.6924 C.ar    1  UNL1        0.1333
      5 N         143.0398  140.0394  160.5998 N.ar    1  UNL1       -0.2108
      6 C         144.1516  139.0930  160.9434 C.ar    1  UNL1        0.1773
      7 N         144.4695  138.7990  162.3796 N.ar    1  UNL1       -0.3214
      8 C         143.6755  139.4515  163.4722 C.ar    1  UNL1        0.1443
      9 N         143.7576  139.3560  164.9668 N.ar    1  UNL1       -0.2284
     10 H         145.1992  138.1778  162.6050 H       1  UNL1        0.1689
     11 C         141.8719  140.8643  169.9270 C.ar    1  UNL1        0.0070
     12 C         141.5981  141.9677  168.9485 C.ar    1  UNL1       -0.0018
     13 C         141.8729  141.7608  167.4885 C.ar    1  UNL1        0.0013
     14 C         142.4216  140.4504  167.0071 C.ar    1  UNL1        0.0177
     15 C         142.6954  139.3470  167.9856 C.ar    1  UNL1        0.0013
     16 C         142.4206  139.5540  169.4456 C.ar    1  UNL1       -0.0018
     17 O         140.6668  142.1624  171.8278 O.3     1  UNL1       -0.3772
     18 C         141.5970  141.0713  171.3871 C.3     1  UNL1        0.1636
     19 H         140.6002  142.1592  172.7955 H       1  UNL1        0.2109
     20 N         141.1340  141.6384  161.3489 N.pl3   1  UNL1       -0.3139
     21 H         140.4051  141.3466  160.7549 H       1  UNL1        0.1485
     22 CA        141.1328  143.0293  161.9103 C.3     1  UNL1        0.1227
     23 C         140.0487  143.4558  162.8552 C.ar    1  UNL1       -0.0021
     24 C         138.6225  143.0825  162.5781 C.ar    1  UNL1       -0.0026
     25 C         137.5385  143.5089  163.5230 C.ar    1  UNL1       -0.0003
     26 C         137.8805  144.3087  164.7451 C.ar    1  UNL1       -0.0000
     27 C         139.3066  144.6819  165.0223 C.ar    1  UNL1       -0.0003
     28 C         140.3908  144.2555  164.0773 C.ar    1  UNL1       -0.0026
     29 C         142.2157  143.9939  161.5268 C.3     1  UNL1        0.1611
     30 O         141.8668  145.2729  160.8251 O.3     1  UNL1       -0.3799
     31 H         141.5093  145.0723  159.9460 H       1  UNL1        0.2105
@<TRIPOS>BOND
     1    17    18    1
     2    18    11    1
     3    11    12   ar
     4    12    13   ar
     5    13    14   ar
     6    14     1    1
     7     1     2   ar
     8     2     3   ar
     9     3     4   ar
    10     4    20    1
    11    20    22    1
    12    22    29    1
    13    29    30    1
    14    22    23    1
    15    23    24   ar
    16    24    25   ar
    17    25    26   ar
    18    26    27   ar
    19    27    28   ar
    20     4     5   ar
    21     5     6   ar
    22     6     7   ar
    23     7     8   ar
    24     8     9   ar
    25    14    15   ar
    26    15    16   ar
    27    16    11   ar
    28     9     1   ar
    29     8     3    1
    30    28    23   ar
    31    17    19    1
    32    20    21    1
    33    30    31    1
    34     7    10    1
@<TRIPOS>MOLECULE
*****
 31 34 0 0 0
SMALL
GASTEIGER

@<TRIPOS>ATOM
      1 C         141.3018  139.4012  165.4205 C.ar    1  UNL1        0.0831
      2 C         140.4422  140.0040  164.3493 C.ar    1  UNL1        0.0249
      3 C         140.8677  139.4246  163.0327 C.ar    1  UNL1        0.0668
      4 C         140.3779  139.6478  161.6326 C.ar    1  UNL1        0.1333
      5 N         141.0107  138.9102  160.4901 N.ar    1  UNL1       -0.2108
      6 C         142.1333  137.9493  160.7477 C.ar    1  UNL1        0.1773
      7 N         142.6231  137.7261  162.1478 N.ar    1  UNL1       -0.3214
      8 C         141.9903  138.4637  163.2903 C.ar    1  UNL1        0.1443
      9 N         142.2586  138.4492  164.7660 N.ar    1  UNL1       -0.2284
     10 H         143.3600  137.0954  162.3168 H       1  UNL1        0.1689
     11 C         141.0540  140.2921  169.8245 C.ar    1  UNL1        0.0070
     12 C         142.3479  139.8268  169.2250 C.ar    1  UNL1       -0.0018
     13 C         142.4306  139.5298  167.7571 C.ar    1  UNL1        0.0013
     14 C         141.2193  139.6981  166.8886 C.ar    1  UNL1        0.0177
     15 C         139.9254  140.1634  167.4880 C.ar    1  UNL1        0.0013
     16 C         139.8427  140.4604  168.9559 C.ar    1  UNL1       -0.0018
     17 O         142.2271  140.7355  172.0999 O.3     1  UNL1       -0.3772
     18 C         140.9715  140.5890  171.2925 C.3     1  UNL1        0.1636
     19 H         141.9976  140.9245  173.0232 H       1  UNL1        0.2109
     20 N         139.2552  140.6088  161.3751 N.pl3   1  UNL1       -0.3139
     21 H         138.3397  140.2720  161.2424 H       1  UNL1        0.1485
     22 CA        139.5275  142.0828  161.3198 C.3     1  UNL1        0.1227
     23 C         139.3322  142.9280  162.5435 C.ar    1  UNL1       -0.0021
     24 C         137.9530  143.1485  163.0904 C.ar    1  UNL1       -0.0026
     25 C         137.7576  143.9937  164.3141 C.ar    1  UNL1       -0.0003
     26 C         138.9416  144.6184  164.9910 C.ar    1  UNL1       -0.0000
     27 C         140.3208  144.3979  164.4441 C.ar    1  UNL1       -0.0003
     28 C         140.5161  143.5526  163.2204 C.ar    1  UNL1       -0.0026
     29 C         139.9952  142.7117  160.0407 C.3     1  UNL1        0.1611
     30 O         139.4208  144.0242  159.5965 O.3     1  UNL1       -0.3799
     31 H         138.4803  143.9115  159.3876 H       1  UNL1        0.2105
@<TRIPOS>BOND
     1    17    18    1
     2    18    11    1
     3    11    12   ar
     4    12    13   ar
     5    13    14   ar
     6    14     1    1
     7     1     2   ar
     8     2     3   ar
     9     3     4   ar
    10     4    20    1
    11    20    22    1
    12    22    29    1
    13    29    30    1
    14    22    23    1
    15    23    24   ar
    16    24    25   ar
    17    25    26   ar
    18    26    27   ar
    19    27    28   ar
    20     4     5   ar
    21     5     6   ar
    22     6     7   ar
    23     7     8   ar
    24     8     9   ar
    25    14    15   ar
    26    15    16   ar
    27    16    11   ar
    28     9     1   ar
    29     8     3    1
    30    28    23   ar
    31    17    19    1
    32    20    21    1
    33    30    31    1
    34     7    10    1
