@<TRIPOS>MOLECULE
*****
 29 33 0 0 0
SMALL
GASTEIGER

@<TRIPOS>ATOM
      1 C         139.9833  137.5349  164.6948 C.3     1  UNL1        0.0294
      2 C         140.3217  137.3901  163.2406 C.3     1  UNL1        0.0666
      3 S         141.6907  137.7566  162.7490 S.3     1  UNL1       -0.0756
      4 C         143.1699  141.2265  163.6643 C.ar    1  UNL1        0.2029
      5 N         143.7936  140.3586  164.7169 N.ar    1  UNL1       -0.1250
      6 N         143.3154  138.9532  164.5021 N.ar    1  UNL1       -0.1220
      7 C         142.3961  138.9524  163.3168 C.ar    1  UNL1        0.1933
      8 N         142.3062  140.3573  162.7989 N.ar    1  UNL1       -0.2860
      9 C         141.4951  140.8131  161.6224 C.3     1  UNL1        0.1341
     10 C         144.7721  142.6896  161.2267 C.3     1  UNL1        0.0556
     11 C         144.1105  143.3765  162.3845 C.ar    1  UNL1        0.1001
     12 N         144.0692  144.8564  162.6252 N.ar    1  UNL1       -0.2085
     13 C         143.3073  145.0986  163.8944 C.ar    1  UNL1        0.2849
     14 O         142.8777  143.7683  164.4381 O.2     1  UNL1       -0.4283
     15 C         143.3741  142.7039  163.5049 C.ar    1  UNL1        0.1964
     16 C         138.7987  138.3555  165.1111 C.3     1  UNL1        0.0730
     17 N         138.8372  139.8491  164.9790 N.3     1  UNL1       -0.2726
     18 C         138.1472  140.6588  163.9214 C.3     1  UNL1        0.0721
     19 C         138.4560  142.1054  164.1701 C.3     1  UNL1        0.0190
     20 C         139.3368  142.1899  165.3814 C.3     1  UNL1        0.0201
     21 C         139.4671  143.6842  165.3767 C.3     1  UNL1        0.0061
     22 C         140.1571  142.8745  166.4342 C.3     1  UNL1        0.0237
     23 C         139.5723  140.7954  165.8813 C.3     1  UNL1        0.0724
     24 C         141.0290  142.8023  167.6526 C.ar    1  UNL1       -0.0225
     25 C         142.4224  142.2572  167.5466 C.ar    1  UNL1       -0.0043
     26 C         143.2943  142.1850  168.7650 C.ar    1  UNL1       -0.0003
     27 C         142.7727  142.6580  170.0895 C.ar    1  UNL1       -0.0000
     28 C         141.3793  143.2031  170.1956 C.ar    1  UNL1       -0.0003
     29 C         140.5074  143.2753  168.9771 C.ar    1  UNL1       -0.0043
@<TRIPOS>BOND
     1    10    11    1
     2    11    12   ar
     3    12    13   ar
     4    13    14   ar
     5    14    15   ar
     6    15     4    1
     7     4     5   ar
     8     5     6   ar
     9     6     7   ar
    10     7     3    1
    11     3     2    1
    12     2     1    1
    13     1    16    1
    14    16    17    1
    15    17    18    1
    16    18    19    1
    17    20    19    1
    18    20    21    1
    19    21    22    1
    20    22    24    1
    21    24    25   ar
    22    25    26   ar
    23    26    27   ar
    24    27    28   ar
    25    28    29   ar
    26    20    23    1
    27     7     8   ar
    28     8     9    1
    29    15    11   ar
    30     8     4   ar
    31    23    17    1
    32    22    20    1
    33    29    24   ar
@<TRIPOS>MOLECULE
*****
 29 33 0 0 0
SMALL
GASTEIGER

@<TRIPOS>ATOM
      1 C         142.6083  139.5285  161.8585 C.3     1  UNL1        0.0294
      2 C         144.0430  139.7903  162.2094 C.3     1  UNL1        0.0666
      3 S         144.3822  140.7378  163.3216 S.3     1  UNL1       -0.0756
      4 C         142.9877  140.8683  166.9416 C.ar    1  UNL1        0.2029
      5 N         143.0495  139.3878  166.7079 N.ar    1  UNL1       -0.1250
      6 N         143.5795  139.1588  165.3234 N.ar    1  UNL1       -0.1220
      7 C         143.8451  140.4977  164.7014 C.ar    1  UNL1        0.1933
      8 N         143.4794  141.5542  165.7014 N.ar    1  UNL1       -0.2860
      9 C         143.5865  143.0363  165.4972 C.3     1  UNL1        0.1341
     10 C         140.2645  140.1612  168.5951 C.3     1  UNL1        0.0556
     11 C         141.2651  141.2190  168.9552 C.ar    1  UNL1        0.1001
     12 N         141.1897  142.1377  170.1386 N.ar    1  UNL1       -0.2085
     13 C         142.3948  143.0304  170.1100 C.ar    1  UNL1        0.2849
     14 O         143.2150  142.6636  168.9088 O.2     1  UNL1       -0.4283
     15 C         142.5168  141.5441  168.1952 C.ar    1  UNL1        0.1964
     16 C         141.9599  138.2386  162.2654 C.3     1  UNL1        0.0730
     17 N         140.8696  138.2395  163.2957 N.3     1  UNL1       -0.2726
     18 C         140.2771  137.0286  163.9534 C.3     1  UNL1        0.0721
     19 C         139.2218  137.4923  164.9133 C.3     1  UNL1        0.0190
     20 C         139.1622  138.9897  164.8488 C.3     1  UNL1        0.0201
     21 C         138.0717  139.1472  165.8667 C.3     1  UNL1        0.0061
     22 C         138.6643  140.3581  165.2090 C.3     1  UNL1        0.0237
     23 C         140.1806  139.4516  163.8491 C.3     1  UNL1        0.0724
     24 C         138.7189  141.8472  165.0372 C.ar    1  UNL1       -0.0225
     25 C         139.7902  142.6425  165.7228 C.ar    1  UNL1       -0.0043
     26 C         139.8448  144.1316  165.5509 C.ar    1  UNL1       -0.0003
     27 C         138.8283  144.8254  164.6935 C.ar    1  UNL1       -0.0000
     28 C         137.7570  144.0302  164.0079 C.ar    1  UNL1       -0.0003
     29 C         137.7024  142.5411  164.1798 C.ar    1  UNL1       -0.0043
@<TRIPOS>BOND
     1    10    11    1
     2    11    12   ar
     3    12    13   ar
     4    13    14   ar
     5    14    15   ar
     6    15     4    1
     7     4     5   ar
     8     5     6   ar
     9     6     7   ar
    10     7     3    1
    11     3     2    1
    12     2     1    1
    13     1    16    1
    14    16    17    1
    15    17    18    1
    16    18    19    1
    17    20    19    1
    18    20    21    1
    19    21    22    1
    20    22    24    1
    21    24    25   ar
    22    25    26   ar
    23    26    27   ar
    24    27    28   ar
    25    28    29   ar
    26    20    23    1
    27     7     8   ar
    28     8     9    1
    29    15    11   ar
    30     8     4   ar
    31    23    17    1
    32    22    20    1
    33    29    24   ar
@<TRIPOS>MOLECULE
*****
 29 33 0 0 0
SMALL
GASTEIGER

@<TRIPOS>ATOM
      1 C         145.1362  140.0347  163.7203 C.3     1  UNL1        0.0294
      2 C         145.5872  141.4633  163.7951 C.3     1  UNL1        0.0666
      3 S         144.7303  142.5514  163.2191 S.3     1  UNL1       -0.0756
      4 C         140.8685  142.3306  163.5407 C.ar    1  UNL1        0.2029
      5 N         141.2105  143.1787  164.7298 N.ar    1  UNL1       -0.1250
      6 N         142.6987  143.3646  164.7541 N.ar    1  UNL1       -0.1220
      7 C         143.2766  142.6315  163.5800 C.ar    1  UNL1        0.1933
      8 N         142.1456  141.9924  162.8301 N.ar    1  UNL1       -0.2860
      9 C         142.2697  141.1611  161.5877 C.3     1  UNL1        0.1341
     10 C         138.0720  143.7885  164.3796 C.3     1  UNL1        0.0556
     11 C         138.2061  142.5670  163.5194 C.ar    1  UNL1        0.1001
     12 N         137.0783  141.8012  162.8937 N.ar    1  UNL1       -0.2085
     13 C         137.6666  140.6577  162.1214 C.ar    1  UNL1        0.2849
     14 O         139.1581  140.7169  162.2698 O.2     1  UNL1       -0.4283
     15 C         139.4915  141.8969  163.1338 C.ar    1  UNL1        0.1964
     16 C         144.4733  139.3944  164.9038 C.3     1  UNL1        0.0730
     17 N         142.9916  139.1612  164.8984 N.3     1  UNL1       -0.2726
     18 C         142.2352  138.3192  163.9140 C.3     1  UNL1        0.0721
     19 C         140.7823  138.3666  164.2836 C.3     1  UNL1        0.0190
     20 C         140.6406  139.2378  165.4964 C.3     1  UNL1        0.0201
     21 C         139.1522  139.0969  165.6178 C.3     1  UNL1        0.0061
     22 C         139.9086  139.9389  166.6022 C.3     1  UNL1        0.0237
     23 C         142.0061  139.7289  165.8764 C.3     1  UNL1        0.0724
     24 C         139.9227  140.8297  167.8089 C.ar    1  UNL1       -0.0225
     25 C         140.4654  142.2242  167.7054 C.ar    1  UNL1       -0.0043
     26 C         140.4795  143.1151  168.9121 C.ar    1  UNL1       -0.0003
     27 C         139.9508  142.6114  170.2223 C.ar    1  UNL1       -0.0000
     28 C         139.4080  141.2168  170.3259 C.ar    1  UNL1       -0.0003
     29 C         139.3939  140.3260  169.1191 C.ar    1  UNL1       -0.0043
@<TRIPOS>BOND
     1    10    11    1
     2    11    12   ar
     3    12    13   ar
     4    13    14   ar
     5    14    15   ar
     6    15     4    1
     7     4     5   ar
     8     5     6   ar
     9     6     7   ar
    10     7     3    1
    11     3     2    1
    12     2     1    1
    13     1    16    1
    14    16    17    1
    15    17    18    1
    16    18    19    1
    17    20    19    1
    18    20    21    1
    19    21    22    1
    20    22    24    1
    21    24    25   ar
    22    25    26   ar
    23    26    27   ar
    24    27    28   ar
    25    28    29   ar
    26    20    23    1
    27     7     8   ar
    28     8     9    1
    29    15    11   ar
    30     8     4   ar
    31    23    17    1
    32    22    20    1
    33    29    24   ar
@<TRIPOS>MOLECULE
*****
 29 33 0 0 0
SMALL
GASTEIGER

@<TRIPOS>ATOM
      1 C         139.4529  137.8542  164.8350 C.3     1  UNL1        0.0294
      2 C         138.8570  137.6137  163.4795 C.3     1  UNL1        0.0666
      3 S         139.2706  138.4659  162.3165 S.3     1  UNL1       -0.0756
      4 C         138.8866  142.3252  162.1625 C.ar    1  UNL1        0.2029
      5 N         137.4523  141.8889  162.1122 N.ar    1  UNL1       -0.1250
      6 N         137.4216  140.3901  162.1638 N.ar    1  UNL1       -0.1220
      7 C         138.8369  139.9001  162.2459 C.ar    1  UNL1        0.1933
      8 N         139.7423  141.0960  162.2451 N.ar    1  UNL1       -0.2860
      9 C         141.2405  141.0677  162.3147 C.3     1  UNL1        0.1341
     10 C         140.0855  143.9891  164.7009 C.3     1  UNL1        0.0556
     11 C         139.9298  144.5067  163.3017 C.ar    1  UNL1        0.1001
     12 N         140.2977  145.8800  162.8236 N.ar    1  UNL1       -0.2085
     13 C         139.9741  145.9640  161.3613 C.ar    1  UNL1        0.2849
     14 O         139.4061  144.6426  160.9357 O.2     1  UNL1       -0.4283
     15 C         139.3787  143.7419  162.1349 C.ar    1  UNL1        0.1964
     16 C         138.8661  138.8986  165.7377 C.3     1  UNL1        0.0730
     17 N         139.7672  139.7684  166.5632 N.3     1  UNL1       -0.2726
     18 C         139.5681  140.1254  168.0064 C.3     1  UNL1        0.0721
     19 C         140.7034  141.0116  168.4255 C.3     1  UNL1        0.0190
     20 C         141.6041  141.2024  167.2413 C.3     1  UNL1        0.0201
     21 C         142.5944  142.0875  167.9384 C.3     1  UNL1        0.0061
     22 C         142.7934  141.7305  166.4952 C.3     1  UNL1        0.0237
     23 C         141.0255  140.4341  166.0903 C.3     1  UNL1        0.0724
     24 C         143.5950  141.8294  165.2312 C.ar    1  UNL1       -0.0225
     25 C         144.3183  140.6249  164.7056 C.ar    1  UNL1       -0.0043
     26 C         145.1198  140.7237  163.4416 C.ar    1  UNL1       -0.0003
     27 C         145.1980  142.0270  162.7032 C.ar    1  UNL1       -0.0000
     28 C         144.4747  143.2314  163.2287 C.ar    1  UNL1       -0.0003
     29 C         143.6732  143.1326  164.4927 C.ar    1  UNL1       -0.0043
@<TRIPOS>BOND
     1    10    11    1
     2    11    12   ar
     3    12    13   ar
     4    13    14   ar
     5    14    15   ar
     6    15     4    1
     7     4     5   ar
     8     5     6   ar
     9     6     7   ar
    10     7     3    1
    11     3     2    1
    12     2     1    1
    13     1    16    1
    14    16    17    1
    15    17    18    1
    16    18    19    1
    17    20    19    1
    18    20    21    1
    19    21    22    1
    20    22    24    1
    21    24    25   ar
    22    25    26   ar
    23    26    27   ar
    24    27    28   ar
    25    28    29   ar
    26    20    23    1
    27     7     8   ar
    28     8     9    1
    29    15    11   ar
    30     8     4   ar
    31    23    17    1
    32    22    20    1
    33    29    24   ar
@<TRIPOS>MOLECULE
*****
 29 33 0 0 0
SMALL
GASTEIGER

@<TRIPOS>ATOM
      1 C         137.6780  140.8033  163.8361 C.3     1  UNL1        0.0294
      2 C         137.5946  141.8977  162.8137 C.3     1  UNL1        0.0666
      3 S         138.4441  143.1255  162.9583 S.3     1  UNL1       -0.0756
      4 C         142.1402  142.5068  163.9691 C.ar    1  UNL1        0.2029
      5 N         141.6330  143.2533  165.1672 N.ar    1  UNL1       -0.1250
      6 N         140.1868  143.5759  164.9344 N.ar    1  UNL1       -0.1220
      7 C         139.8000  143.0288  163.5923 C.ar    1  UNL1        0.1933
      8 N         141.0073  142.3681  162.9957 N.ar    1  UNL1       -0.2860
      9 C         141.0706  141.6880  161.6602 C.3     1  UNL1        0.1341
     10 C         144.2840  143.5505  161.7409 C.3     1  UNL1        0.0556
     11 C         144.5207  142.4696  162.7537 C.ar    1  UNL1        0.1001
     12 N         145.7842  141.6786  162.9201 N.ar    1  UNL1       -0.2085
     13 C         145.5798  140.7100  164.0471 C.ar    1  UNL1        0.2849
     14 O         144.1898  140.9024  164.5772 O.2     1  UNL1       -0.4283
     15 C         143.5353  141.9899  163.7778 C.ar    1  UNL1        0.1964
     16 C         138.4514  139.5536  163.5358 C.3     1  UNL1        0.0730
     17 N         139.7177  139.2574  164.2832 N.3     1  UNL1       -0.2726
     18 C         140.8244  138.3567  163.8206 C.3     1  UNL1        0.0721
     19 C         141.8903  138.3525  164.8760 C.3     1  UNL1        0.0190
     20 C         141.4424  139.2507  165.9908 C.3     1  UNL1        0.0201
     21 C         142.6549  139.0500  166.8507 C.3     1  UNL1        0.0061
     22 C         141.5482  139.9507  167.3132 C.3     1  UNL1        0.0237
     23 C         140.0996  139.8099  165.6244 C.3     1  UNL1        0.0724
     24 C         140.9704  140.8749  168.3438 C.ar    1  UNL1       -0.0225
     25 C         141.5374  142.2526  168.5178 C.ar    1  UNL1       -0.0043
     26 C         140.9596  143.1768  169.5483 C.ar    1  UNL1       -0.0003
     27 C         139.8147  142.7232  170.4048 C.ar    1  UNL1       -0.0000
     28 C         139.2477  141.3454  170.2308 C.ar    1  UNL1       -0.0003
     29 C         139.8256  140.4212  169.2002 C.ar    1  UNL1       -0.0043
@<TRIPOS>BOND
     1    10    11    1
     2    11    12   ar
     3    12    13   ar
     4    13    14   ar
     5    14    15   ar
     6    15     4    1
     7     4     5   ar
     8     5     6   ar
     9     6     7   ar
    10     7     3    1
    11     3     2    1
    12     2     1    1
    13     1    16    1
    14    16    17    1
    15    17    18    1
    16    18    19    1
    17    20    19    1
    18    20    21    1
    19    21    22    1
    20    22    24    1
    21    24    25   ar
    22    25    26   ar
    23    26    27   ar
    24    27    28   ar
    25    28    29   ar
    26    20    23    1
    27     7     8   ar
    28     8     9    1
    29    15    11   ar
    30     8     4   ar
    31    23    17    1
    32    22    20    1
    33    29    24   ar
@<TRIPOS>MOLECULE
*****
 29 33 0 0 0
SMALL
GASTEIGER

@<TRIPOS>ATOM
      1 C         138.3934  144.5171  163.8517 C.3     1  UNL1        0.0294
      2 C         139.0494  145.3504  162.7909 C.3     1  UNL1        0.0666
      3 S         140.3397  144.8989  162.1735 S.3     1  UNL1       -0.0756
      4 C         142.7622  142.4381  163.9461 C.ar    1  UNL1        0.2029
      5 N         143.0994  143.7257  164.6379 N.ar    1  UNL1       -0.1250
      6 N         142.2329  144.8042  164.0581 N.ar    1  UNL1       -0.1220
      7 C         141.3603  144.1832  163.0079 C.ar    1  UNL1        0.1933
      8 N         141.6874  142.7209  162.9387 N.ar    1  UNL1       -0.2860
      9 C         141.0513  141.7176  162.0228 C.3     1  UNL1        0.1341
     10 C         145.9214  141.6981  163.5973 C.3     1  UNL1        0.0556
     11 C         144.8418  140.7622  164.0542 C.ar    1  UNL1        0.1001
     12 N         145.0248  139.3219  164.4310 N.ar    1  UNL1       -0.2085
     13 C         143.6858  138.7719  164.8242 C.ar    1  UNL1        0.2849
     14 O         142.6752  139.8723  164.6904 O.2     1  UNL1       -0.4283
     15 C         143.3897  141.1024  164.2145 C.ar    1  UNL1        0.1964
     16 C         137.6926  143.2443  163.4791 C.3     1  UNL1        0.0730
     17 N         138.1323  141.9423  164.0802 N.3     1  UNL1       -0.2726
     18 C         137.8030  140.5748  163.5592 C.3     1  UNL1        0.0721
     19 C         138.4457  139.5666  164.4649 C.3     1  UNL1        0.0190
     20 C         139.1722  140.3109  165.5457 C.3     1  UNL1        0.0201
     21 C         139.6854  139.0938  166.2566 C.3     1  UNL1        0.0061
     22 C         140.0147  140.4613  166.7777 C.3     1  UNL1        0.0237
     23 C         138.9785  141.7792  165.3080 C.3     1  UNL1        0.0724
     24 C         140.6912  141.3377  167.7897 C.ar    1  UNL1       -0.0225
     25 C         142.1739  141.5544  167.7226 C.ar    1  UNL1       -0.0043
     26 C         142.8504  142.4307  168.7346 C.ar    1  UNL1       -0.0003
     27 C         142.0441  143.0904  169.8138 C.ar    1  UNL1       -0.0000
     28 C         140.5614  142.8738  169.8810 C.ar    1  UNL1       -0.0003
     29 C         139.8849  141.9974  168.8689 C.ar    1  UNL1       -0.0043
@<TRIPOS>BOND
     1    10    11    1
     2    11    12   ar
     3    12    13   ar
     4    13    14   ar
     5    14    15   ar
     6    15     4    1
     7     4     5   ar
     8     5     6   ar
     9     6     7   ar
    10     7     3    1
    11     3     2    1
    12     2     1    1
    13     1    16    1
    14    16    17    1
    15    17    18    1
    16    18    19    1
    17    20    19    1
    18    20    21    1
    19    21    22    1
    20    22    24    1
    21    24    25   ar
    22    25    26   ar
    23    26    27   ar
    24    27    28   ar
    25    28    29   ar
    26    20    23    1
    27     7     8   ar
    28     8     9    1
    29    15    11   ar
    30     8     4   ar
    31    23    17    1
    32    22    20    1
    33    29    24   ar
@<TRIPOS>MOLECULE
*****
 29 33 0 0 0
SMALL
GASTEIGER

@<TRIPOS>ATOM
      1 C         143.4516  144.6181  163.5652 C.3     1  UNL1        0.0294
      2 C         142.0784  145.2020  163.7187 C.3     1  UNL1        0.0666
      3 S         141.0663  145.0363  162.6242 S.3     1  UNL1       -0.0756
      4 C         139.0887  141.6968  162.5772 C.ar    1  UNL1        0.2029
      5 N         138.0126  142.6654  162.9694 N.ar    1  UNL1       -0.1250
      6 N         138.6224  144.0343  163.0348 N.ar    1  UNL1       -0.1220
      7 C         140.0754  143.9117  162.6829 C.ar    1  UNL1        0.1933
      8 N         140.3636  142.4671  162.4001 N.ar    1  UNL1       -0.2860
      9 C         141.6932  141.8934  162.0089 C.3     1  UNL1        0.1341
     10 C         138.1905  139.5690  164.8827 C.3     1  UNL1        0.0556
     11 C         138.5067  139.2396  163.4539 C.ar    1  UNL1        0.1001
     12 N         138.4656  137.8743  162.8339 N.ar    1  UNL1       -0.2085
     13 C         138.8530  138.0086  161.3910 C.ar    1  UNL1        0.2849
     14 O         139.1336  139.4568  161.1192 O.2     1  UNL1       -0.4283
     15 C         138.9196  140.2176  162.3942 C.ar    1  UNL1        0.1964
     16 C         144.0964  143.9049  164.7165 C.3     1  UNL1        0.0730
     17 N         144.0852  142.4059  164.7713 N.3     1  UNL1       -0.2726
     18 C         144.8031  141.4839  163.8309 C.3     1  UNL1        0.0721
     19 C         144.5157  140.0740  164.2546 C.3     1  UNL1        0.0190
     20 C         143.6201  140.1247  165.4569 C.3     1  UNL1        0.0201
     21 C         143.5154  138.6393  165.6372 C.3     1  UNL1        0.0061
     22 C         142.7975  139.5613  166.5776 C.3     1  UNL1        0.0237
     23 C         143.3541  141.5659  165.7763 C.3     1  UNL1        0.0724
     24 C         141.9081  139.7685  167.7676 C.ar    1  UNL1       -0.0225
     25 C         140.4486  140.0544  167.5723 C.ar    1  UNL1       -0.0043
     26 C         139.5592  140.2616  168.7623 C.ar    1  UNL1       -0.0003
     27 C         140.1292  140.1827  170.1475 C.ar    1  UNL1       -0.0000
     28 C         141.5887  139.8967  170.3427 C.ar    1  UNL1       -0.0003
     29 C         142.4782  139.6896  169.1528 C.ar    1  UNL1       -0.0043
@<TRIPOS>BOND
     1    10    11    1
     2    11    12   ar
     3    12    13   ar
     4    13    14   ar
     5    14    15   ar
     6    15     4    1
     7     4     5   ar
     8     5     6   ar
     9     6     7   ar
    10     7     3    1
    11     3     2    1
    12     2     1    1
    13     1    16    1
    14    16    17    1
    15    17    18    1
    16    18    19    1
    17    20    19    1
    18    20    21    1
    19    21    22    1
    20    22    24    1
    21    24    25   ar
    22    25    26   ar
    23    26    27   ar
    24    27    28   ar
    25    28    29   ar
    26    20    23    1
    27     7     8   ar
    28     8     9    1
    29    15    11   ar
    30     8     4   ar
    31    23    17    1
    32    22    20    1
    33    29    24   ar
@<TRIPOS>MOLECULE
*****
 29 33 0 0 0
SMALL
GASTEIGER

@<TRIPOS>ATOM
      1 C         140.7831  145.4242  162.8524 C.3     1  UNL1        0.0294
      2 C         142.0902  145.4585  163.5876 C.3     1  UNL1        0.0666
      3 S         143.1764  144.4872  163.2318 S.3     1  UNL1       -0.0756
      4 C         142.4837  140.6852  163.5935 C.ar    1  UNL1        0.2029
      5 N         143.2313  140.9657  164.8633 N.ar    1  UNL1       -0.1250
      6 N         143.5818  142.4241  164.8824 N.ar    1  UNL1       -0.1220
      7 C         143.0508  143.0449  163.6243 C.ar    1  UNL1        0.1933
      8 N         142.3722  141.9702  162.8277 N.ar    1  UNL1       -0.2860
      9 C         141.7000  142.1492  161.4988 C.3     1  UNL1        0.1341
     10 C         143.6074  138.8606  161.1321 C.3     1  UNL1        0.0556
     11 C         142.4592  138.5148  162.0333 C.ar    1  UNL1        0.1001
     12 N         141.6259  137.2697  161.9614 N.ar    1  UNL1       -0.2085
     13 C         140.5944  137.3387  163.0483 C.ar    1  UNL1        0.2849
     14 O         140.7902  138.6266  163.7919 O.2     1  UNL1       -0.4283
     15 C         141.9427  139.3534  163.1647 C.ar    1  UNL1        0.1964
     16 C         139.5233  145.0567  163.5789 C.3     1  UNL1        0.0730
     17 N         139.3622  143.6795  164.1513 N.3     1  UNL1       -0.2726
     18 C         138.6044  142.5471  163.5240 C.3     1  UNL1        0.0721
     19 C         138.7045  141.3608  164.4364 C.3     1  UNL1        0.0190
     20 C         139.5240  141.7600  165.6276 C.3     1  UNL1        0.0201
     21 C         139.4494  140.4322  166.3214 C.3     1  UNL1        0.0061
     22 C         140.2072  141.5646  166.9487 C.3     1  UNL1        0.0237
     23 C         139.9305  143.1931  165.4514 C.3     1  UNL1        0.0724
     24 C         141.0390  142.1055  168.0735 C.ar    1  UNL1       -0.0225
     25 C         142.4643  141.6654  168.2312 C.ar    1  UNL1       -0.0043
     26 C         143.2962  142.2064  169.3561 C.ar    1  UNL1       -0.0003
     27 C         142.7028  143.1875  170.3232 C.ar    1  UNL1       -0.0000
     28 C         141.2775  143.6275  170.1655 C.ar    1  UNL1       -0.0003
     29 C         140.4456  143.0866  169.0407 C.ar    1  UNL1       -0.0043
@<TRIPOS>BOND
     1    10    11    1
     2    11    12   ar
     3    12    13   ar
     4    13    14   ar
     5    14    15   ar
     6    15     4    1
     7     4     5   ar
     8     5     6   ar
     9     6     7   ar
    10     7     3    1
    11     3     2    1
    12     2     1    1
    13     1    16    1
    14    16    17    1
    15    17    18    1
    16    18    19    1
    17    20    19    1
    18    20    21    1
    19    21    22    1
    20    22    24    1
    21    24    25   ar
    22    25    26   ar
    23    26    27   ar
    24    27    28   ar
    25    28    29   ar
    26    20    23    1
    27     7     8   ar
    28     8     9    1
    29    15    11   ar
    30     8     4   ar
    31    23    17    1
    32    22    20    1
    33    29    24   ar
@<TRIPOS>MOLECULE
*****
 29 33 0 0 0
SMALL
GASTEIGER

@<TRIPOS>ATOM
      1 C         139.4910  137.6161  163.8598 C.3     1  UNL1        0.0294
      2 C         140.9527  137.3625  164.0819 C.3     1  UNL1        0.0666
      3 S         141.9728  138.0662  163.2368 S.3     1  UNL1       -0.0756
      4 C         141.6646  141.8825  162.5993 C.ar    1  UNL1        0.2029
      5 N         142.5667  141.8607  163.7976 N.ar    1  UNL1       -0.1250
      6 N         142.7920  140.4284  164.1822 N.ar    1  UNL1       -0.1220
      7 C         142.0291  139.5651  163.2217 C.ar    1  UNL1        0.1933
      8 N         141.3323  140.4637  162.2434 N.ar    1  UNL1       -0.2860
      9 C         140.4570  140.0212  161.1085 C.3     1  UNL1        0.1341
     10 C         142.1566  144.9707  163.5324 C.3     1  UNL1        0.0556
     11 C         141.4060  144.5274  162.3117 C.ar    1  UNL1        0.1001
     12 N         140.7499  145.4257  161.3055 N.ar    1  UNL1       -0.2085
     13 C         140.1182  144.5615  160.2548 C.ar    1  UNL1        0.2849
     14 O         140.3840  143.1290  160.6115 O.2     1  UNL1       -0.4283
     15 C         141.1799  143.1079  161.8828 C.ar    1  UNL1        0.1964
     16 C         138.7087  138.4175  164.8576 C.3     1  UNL1        0.0730
     17 N         138.7150  139.9158  164.7865 N.3     1  UNL1       -0.2726
     18 C         137.9759  140.7542  163.7861 C.3     1  UNL1        0.0721
     19 C         138.2657  142.1953  164.0848 C.3     1  UNL1        0.0190
     20 C         139.1838  142.2476  165.2698 C.3     1  UNL1        0.0201
     21 C         139.2861  143.7431  165.3231 C.3     1  UNL1        0.0061
     22 C         140.0252  142.9048  166.3235 C.3     1  UNL1        0.0237
     23 C         139.4615  140.8388  165.7035 C.3     1  UNL1        0.0724
     24 C         140.9377  142.8001  167.5094 C.ar    1  UNL1       -0.0225
     25 C         140.4542  143.2169  168.8669 C.ar    1  UNL1       -0.0043
     26 C         141.3666  143.1122  170.0528 C.ar    1  UNL1       -0.0003
     27 C         142.7626  142.5908  169.8813 C.ar    1  UNL1       -0.0000
     28 C         143.2461  142.1741  168.5239 C.ar    1  UNL1       -0.0003
     29 C         142.3336  142.2788  167.3379 C.ar    1  UNL1       -0.0043
@<TRIPOS>BOND
     1    10    11    1
     2    11    12   ar
     3    12    13   ar
     4    13    14   ar
     5    14    15   ar
     6    15     4    1
     7     4     5   ar
     8     5     6   ar
     9     6     7   ar
    10     7     3    1
    11     3     2    1
    12     2     1    1
    13     1    16    1
    14    16    17    1
    15    17    18    1
    16    18    19    1
    17    20    19    1
    18    20    21    1
    19    21    22    1
    20    22    24    1
    21    24    25   ar
    22    25    26   ar
    23    26    27   ar
    24    27    28   ar
    25    28    29   ar
    26    20    23    1
    27     7     8   ar
    28     8     9    1
    29    15    11   ar
    30     8     4   ar
    31    23    17    1
    32    22    20    1
    33    29    24   ar
