@<TRIPOS>MOLECULE
*****
 35 38 0 0 0
SMALL
GASTEIGER

@<TRIPOS>ATOM
      1 C         142.6288  142.5175  164.0299 C.ar    1  UNL1        0.1206
      2 C         141.6030  143.4811  163.5112 C.ar    1  UNL1        0.0210
      3 C         141.6352  143.9091  162.0739 C.ar    1  UNL1        0.0301
      4 C         142.6933  143.3735  161.1554 C.ar    1  UNL1        0.1418
      5 C         143.7191  142.4099  161.6742 C.ar    1  UNL1        0.1131
      6 C         143.6868  141.9819  163.1114 C.ar    1  UNL1        0.3062
      7 O         142.7256  143.8016  159.7181 O.3     1  UNL1       -0.4802
      8 C         141.6998  144.7652  159.1994 C.3     1  UNL1        0.1592
      9 C         140.9511  145.6495  158.2467 C.3     1  UNL1        0.0462
     10 C         142.4978  144.5367  157.9501 C.3     1  UNL1        0.0462
     11 C         140.6417  145.3008  160.1179 C.3     1  UNL1        0.1653
     12 O         139.6159  146.2645  159.5990 O.3     1  UNL1       -0.3793
     13 C         140.6094  144.8728  161.5551 C.3     1  UNL1        0.1105
     14 H         139.7786  146.4343  158.6580 H       1  UNL1        0.2106
     15 C         143.5217  142.7274  166.4607 C.2     1  UNL1        0.2307
     16 O         144.4791  143.7935  166.0169 O.2     1  UNL1       -0.2744
     17 N         142.5965  142.0894  165.4672 N.am    1  UNL1       -0.2789
     18 H         141.9681  141.3897  165.7585 H       1  UNL1        0.1550
     19 C         143.4895  142.2994  167.8980 C.3     1  UNL1        0.1117
     20 C         139.5707  141.2527  169.8467 C.ar    1  UNL1        0.1387
     21 C         140.3419  140.2035  169.1021 C.ar    1  UNL1        0.0366
     22 C         141.6482  140.5524  168.4525 C.ar    1  UNL1       -0.0007
     23 C         142.1832  141.9505  168.5475 C.ar    1  UNL1       -0.0129
     24 C         141.4120  142.9997  169.2922 C.ar    1  UNL1       -0.0007
     25 C         140.1058  142.6508  169.9417 C.ar    1  UNL1        0.0366
     26 C         137.6893  139.5281  170.3326 C.3     1  UNL1        0.2525
     27 O         138.2644  140.9037  170.4962 O.3     1  UNL1       -0.4714
     28 N         144.7127  141.0183  163.6303 N.pl3   1  UNL1        0.0823
     29 O         146.1728  141.3391  163.5074 O.2     1  UNL1        0.0415
     30 O         144.2784  139.7339  164.2719 O.co2   1  UNL1       -0.5760
     31 N         139.5513  145.4083  162.4736 N.3     1  UNL1       -0.2940
     32 H         139.0141  146.0902  161.9380 H       1  UNL1        0.1235
     33 C         138.5606  144.4738  163.1021 C.3     1  UNL1        0.0543
     34 C         137.7347  144.0589  164.2835 C.3     1  UNL1        0.0171
     35 C         137.6706  143.2700  163.0093 C.3     1  UNL1        0.0171
@<TRIPOS>UNITY_ATOM_ATTR
28 1
charge 1
30 1
charge -1
@<TRIPOS>BOND
     1    26    27    1
     2    27    20    1
     3    20    21   ar
     4    21    22   ar
     5    22    23   ar
     6    23    19    1
     7    19    15    1
     8    15    16    2
     9    15    17   am
    10    17     1    1
    11     1     2   ar
    12     2     3   ar
    13     3     4   ar
    14     4     5   ar
    15     5     6   ar
    16     6    28    1
    17    28    29    2
    18    28    30    1
    19     4     7    1
    20     7     8    1
    21     8     9    1
    22     8    10    1
    23     8    11    1
    24    11    12    1
    25    11    13    1
    26    13    31    1
    27    31    33    1
    28    33    34    1
    29    34    35    1
    30    23    24   ar
    31    24    25   ar
    32    25    20   ar
    33     6     1   ar
    34    35    33    1
    35    13     3    1
    36    17    18    1
    37    12    14    1
    38    31    32    1
@<TRIPOS>MOLECULE
*****
 35 38 0 0 0
SMALL
GASTEIGER

@<TRIPOS>ATOM
      1 C         140.4676  140.6271  162.6720 C.ar    1  UNL1        0.1206
      2 C         140.8718  142.0522  162.4363 C.ar    1  UNL1        0.0210
      3 C         140.9946  142.5751  161.0357 C.ar    1  UNL1        0.0301
      4 C         140.7131  141.6728  159.8710 C.ar    1  UNL1        0.1418
      5 C         140.3088  140.2477  160.1067 C.ar    1  UNL1        0.1131
      6 C         140.1861  139.7249  161.5073 C.ar    1  UNL1        0.3062
      7 O         140.8358  142.1957  158.4704 O.3     1  UNL1       -0.4802
      8 C         141.2401  143.6208  158.2346 C.3     1  UNL1        0.1592
      9 C         141.5886  144.8851  157.5065 C.3     1  UNL1        0.0462
     10 C         141.0796  143.1576  156.8170 C.3     1  UNL1        0.0462
     11 C         141.5216  144.5231  159.3994 C.3     1  UNL1        0.1653
     12 O         141.9258  145.9482  159.1635 O.3     1  UNL1       -0.3793
     13 C         141.3988  144.0002  160.7999 C.3     1  UNL1        0.1105
     14 H         141.9571  146.1218  158.2097 H       1  UNL1        0.2106
     15 C         139.0728  140.3088  164.8408 C.2     1  UNL1        0.2307
     16 O         137.9235  141.0364  164.2083 O.2     1  UNL1       -0.2744
     17 N         140.3449  140.1042  164.0726 N.am    1  UNL1       -0.2789
     18 H         141.0992  139.6268  164.4877 H       1  UNL1        0.1550
     19 C         138.9500  139.7860  166.2413 C.3     1  UNL1        0.1117
     20 C         140.8228  142.0395  169.6566 C.ar    1  UNL1        0.1387
     21 C         141.0864  142.4655  168.2428 C.ar    1  UNL1        0.0366
     22 C         140.4622  141.7143  167.1043 C.ar    1  UNL1       -0.0007
     23 C         139.5743  140.5372  167.3797 C.ar    1  UNL1       -0.0129
     24 C         139.3106  140.1111  168.7936 C.ar    1  UNL1       -0.0007
     25 C         139.9348  140.8623  169.9321 C.ar    1  UNL1        0.0366
     26 C         142.8689  143.2577  170.6954 C.3     1  UNL1        0.2525
     27 O         141.4470  142.7907  170.7950 O.3     1  UNL1       -0.4714
     28 N         139.7819  138.2997  161.7431 N.pl3   1  UNL1        0.0823
     29 O         140.7734  137.3211  162.2992 O.2     1  UNL1        0.0415
     30 O         138.3862  137.8532  161.4228 O.co2   1  UNL1       -0.5760
     31 N         141.6803  144.9025  161.9646 N.3     1  UNL1       -0.2940
     32 H         140.8896  144.8148  162.6029 H       1  UNL1        0.1235
     33 C         142.9216  144.7052  162.7833 C.3     1  UNL1        0.0543
     34 C         143.7257  144.9992  164.0150 C.3     1  UNL1        0.0171
     35 C         144.2673  144.0696  162.9698 C.3     1  UNL1        0.0171
@<TRIPOS>UNITY_ATOM_ATTR
28 1
charge 1
30 1
charge -1
@<TRIPOS>BOND
     1    26    27    1
     2    27    20    1
     3    20    21   ar
     4    21    22   ar
     5    22    23   ar
     6    23    19    1
     7    19    15    1
     8    15    16    2
     9    15    17   am
    10    17     1    1
    11     1     2   ar
    12     2     3   ar
    13     3     4   ar
    14     4     5   ar
    15     5     6   ar
    16     6    28    1
    17    28    29    2
    18    28    30    1
    19     4     7    1
    20     7     8    1
    21     8     9    1
    22     8    10    1
    23     8    11    1
    24    11    12    1
    25    11    13    1
    26    13    31    1
    27    31    33    1
    28    33    34    1
    29    34    35    1
    30    23    24   ar
    31    24    25   ar
    32    25    20   ar
    33     6     1   ar
    34    35    33    1
    35    13     3    1
    36    17    18    1
    37    12    14    1
    38    31    32    1
@<TRIPOS>MOLECULE
*****
 35 38 0 0 0
SMALL
GASTEIGER

@<TRIPOS>ATOM
      1 C         140.3397  142.3742  162.6292 C.ar    1  UNL1        0.1206
      2 C         139.9030  141.2729  163.5491 C.ar    1  UNL1        0.0210
      3 C         139.9915  141.4577  165.0351 C.ar    1  UNL1        0.0301
      4 C         140.5167  142.7437  165.6010 C.ar    1  UNL1        0.1418
      5 C         140.9534  143.8450  164.6810 C.ar    1  UNL1        0.1131
      6 C         140.8650  143.6602  163.1951 C.ar    1  UNL1        0.3062
      7 O         140.6052  142.9284  167.0870 O.3     1  UNL1       -0.4802
      8 C         140.1685  141.8271  168.0070 C.3     1  UNL1        0.1592
      9 C         139.8792  141.0826  169.2767 C.3     1  UNL1        0.0462
     10 C         140.5932  142.8546  169.0138 C.3     1  UNL1        0.0462
     11 C         139.6432  140.5411  167.4410 C.3     1  UNL1        0.1653
     12 O         139.2065  139.4398  168.3611 O.3     1  UNL1       -0.3793
     13 C         139.5547  140.3563  165.9551 C.3     1  UNL1        0.1105
     14 H         139.3284  139.7201  169.2817 H       1  UNL1        0.2106
     15 C         139.0377  142.6630  160.3995 C.2     1  UNL1        0.2307
     16 O         137.9126  143.3212  161.1419 O.2     1  UNL1       -0.2744
     17 N         140.2512  142.1895  161.1432 N.am    1  UNL1       -0.2789
     18 H         140.9897  141.7575  160.6560 H       1  UNL1        0.1550
     19 C         138.9491  142.4783  158.9136 C.3     1  UNL1        0.1117
     20 C         140.1454  145.8263  156.1549 C.ar    1  UNL1        0.1387
     21 C         140.5588  145.8583  157.5964 C.ar    1  UNL1        0.0366
     22 C         140.1600  144.7423  158.5160 C.ar    1  UNL1       -0.0007
     23 C         139.3479  143.5943  157.9940 C.ar    1  UNL1       -0.0129
     24 C         138.9344  143.5623  156.5524 C.ar    1  UNL1       -0.0007
     25 C         139.3332  144.6783  155.6329 C.ar    1  UNL1        0.0366
     26 C         139.5143  147.9196  154.7515 C.3     1  UNL1        0.2525
     27 O         140.5441  146.9423  155.2354 O.3     1  UNL1       -0.4714
     28 N         141.3017  144.7615  162.2751 N.pl3   1  UNL1        0.0823
     29 O         142.5090  144.5768  161.4043 O.2     1  UNL1        0.0415
     30 O         140.5311  146.0475  162.2258 O.co2   1  UNL1       -0.5760
     31 N         139.0295  139.0703  165.3892 N.3     1  UNL1       -0.2940
     32 H         138.2802  139.3174  164.7427 H       1  UNL1        0.1235
     33 C         139.9503  138.1442  164.6513 C.3     1  UNL1        0.0543
     34 C         140.3654  137.4667  163.3790 C.3     1  UNL1        0.0171
     35 C         141.1298  137.2177  164.6454 C.3     1  UNL1        0.0171
@<TRIPOS>UNITY_ATOM_ATTR
28 1
charge 1
30 1
charge -1
@<TRIPOS>BOND
     1    26    27    1
     2    27    20    1
     3    20    21   ar
     4    21    22   ar
     5    22    23   ar
     6    23    19    1
     7    19    15    1
     8    15    16    2
     9    15    17   am
    10    17     1    1
    11     1     2   ar
    12     2     3   ar
    13     3     4   ar
    14     4     5   ar
    15     5     6   ar
    16     6    28    1
    17    28    29    2
    18    28    30    1
    19     4     7    1
    20     7     8    1
    21     8     9    1
    22     8    10    1
    23     8    11    1
    24    11    12    1
    25    11    13    1
    26    13    31    1
    27    31    33    1
    28    33    34    1
    29    34    35    1
    30    23    24   ar
    31    24    25   ar
    32    25    20   ar
    33     6     1   ar
    34    35    33    1
    35    13     3    1
    36    17    18    1
    37    12    14    1
    38    31    32    1
@<TRIPOS>MOLECULE
*****
 35 38 0 0 0
SMALL
GASTEIGER

@<TRIPOS>ATOM
      1 C         142.2514  142.2034  164.8413 C.ar    1  UNL1        0.1206
      2 C         141.0301  141.5143  165.3735 C.ar    1  UNL1        0.0210
      3 C         140.9180  141.2119  166.8384 C.ar    1  UNL1        0.0301
      4 C         142.0272  141.5987  167.7711 C.ar    1  UNL1        0.1418
      5 C         143.2486  142.2878  167.2389 C.ar    1  UNL1        0.1131
      6 C         143.3607  142.5902  165.7740 C.ar    1  UNL1        0.3062
      7 O         141.9151  141.2962  169.2361 O.3     1  UNL1       -0.4802
      8 C         140.6938  140.6070  169.7682 C.3     1  UNL1        0.1592
      9 C         139.7429  139.9761  170.7418 C.3     1  UNL1        0.0462
     10 C         141.4728  140.7747  171.0390 C.3     1  UNL1        0.0462
     11 C         139.5845  140.2203  168.8356 C.3     1  UNL1        0.1653
     12 O         138.3631  139.5310  169.3678 O.3     1  UNL1       -0.3793
     13 C         139.6966  140.5226  167.3707 C.3     1  UNL1        0.1105
     14 H         138.4508  139.4122  170.3265 H       1  UNL1        0.2106
     15 C         141.8797  143.8217  162.8430 C.2     1  UNL1        0.2307
     16 O         141.2837  144.8351  163.7747 O.2     1  UNL1       -0.2744
     17 N         142.3636  142.5059  163.3763 N.am    1  UNL1       -0.2789
     18 H         142.7547  141.8407  162.7649 H       1  UNL1        0.1550
     19 C         141.9918  144.1242  161.3782 C.3     1  UNL1        0.1117
     20 C         138.7578  142.7848  158.5502 C.ar    1  UNL1        0.1387
     21 C         139.9920  143.4502  158.0172 C.ar    1  UNL1        0.0366
     22 C         141.0700  143.8966  158.9598 C.ar    1  UNL1       -0.0007
     23 C         140.9138  143.6777  160.4355 C.ar    1  UNL1       -0.0129
     24 C         139.6796  143.0124  160.9686 C.ar    1  UNL1       -0.0007
     25 C         138.6016  142.5659  160.0259 C.ar    1  UNL1        0.0366
     26 C         137.9027  141.1474  156.7233 C.3     1  UNL1        0.2525
     27 O         137.6798  142.3384  157.6075 O.3     1  UNL1       -0.4714
     28 N         144.5821  143.2794  165.2417 N.pl3   1  UNL1        0.0823
     29 O         145.2632  144.3363  166.0597 O.2     1  UNL1        0.0415
     30 O         145.1223  142.9118  163.8916 O.co2   1  UNL1       -0.5760
     31 N         138.5873  140.1359  166.4380 N.3     1  UNL1       -0.2940
     32 H         138.5173  140.8767  165.7404 H       1  UNL1        0.1235
     33 C         138.6566  138.8393  165.6870 C.3     1  UNL1        0.0543
     34 C         138.5544  137.3429  165.6665 C.3     1  UNL1        0.0171
     35 C         138.8790  138.0898  164.4069 C.3     1  UNL1        0.0171
@<TRIPOS>UNITY_ATOM_ATTR
28 1
charge 1
30 1
charge -1
@<TRIPOS>BOND
     1    26    27    1
     2    27    20    1
     3    20    21   ar
     4    21    22   ar
     5    22    23   ar
     6    23    19    1
     7    19    15    1
     8    15    16    2
     9    15    17   am
    10    17     1    1
    11     1     2   ar
    12     2     3   ar
    13     3     4   ar
    14     4     5   ar
    15     5     6   ar
    16     6    28    1
    17    28    29    2
    18    28    30    1
    19     4     7    1
    20     7     8    1
    21     8     9    1
    22     8    10    1
    23     8    11    1
    24    11    12    1
    25    11    13    1
    26    13    31    1
    27    31    33    1
    28    33    34    1
    29    34    35    1
    30    23    24   ar
    31    24    25   ar
    32    25    20   ar
    33     6     1   ar
    34    35    33    1
    35    13     3    1
    36    17    18    1
    37    12    14    1
    38    31    32    1
@<TRIPOS>MOLECULE
*****
 35 38 0 0 0
SMALL
GASTEIGER

@<TRIPOS>ATOM
      1 C         140.1895  140.2560  164.3446 C.ar    1  UNL1        0.1206
      2 C         139.5192  141.2992  163.5006 C.ar    1  UNL1        0.0210
      3 C         139.4313  141.1184  162.0141 C.ar    1  UNL1        0.0301
      4 C         140.0137  139.8943  161.3718 C.ar    1  UNL1        0.1418
      5 C         140.6839  138.8512  162.2158 C.ar    1  UNL1        0.1131
      6 C         140.7718  139.0320  163.7022 C.ar    1  UNL1        0.3062
      7 O         139.9257  139.7135  159.8852 O.3     1  UNL1       -0.4802
      8 C         139.2554  140.7567  159.0412 C.3     1  UNL1        0.1592
      9 C         138.7232  141.4596  157.8277 C.3     1  UNL1        0.0462
     10 C         139.6529  139.7768  157.9774 C.3     1  UNL1        0.0462
     11 C         138.6731  141.9807  159.6836 C.3     1  UNL1        0.1653
     12 O         138.0028  143.0240  158.8395 O.3     1  UNL1       -0.3793
     13 C         138.7610  142.1616  161.1700 C.3     1  UNL1        0.1105
     14 H         138.0324  142.7543  157.9082 H       1  UNL1        0.2106
     15 C         139.2563  139.7992  166.7259 C.2     1  UNL1        0.2307
     16 O         138.1471  138.9808  166.1342 O.2     1  UNL1       -0.2744
     17 N         140.2775  140.4368  165.8311 N.am    1  UNL1       -0.2789
     18 H         141.0054  140.9740  166.2195 H       1  UNL1        0.1550
     19 C         139.3442  139.9800  168.2124 C.3     1  UNL1        0.1117
     20 C         142.5795  142.5619  169.9776 C.ar    1  UNL1        0.1387
     21 C         142.8625  141.1266  169.6463 C.ar    1  UNL1        0.0366
     22 C         141.7841  140.2660  169.0579 C.ar    1  UNL1       -0.0007
     23 C         140.4226  140.8406  168.8008 C.ar    1  UNL1       -0.0129
     24 C         140.1395  142.2760  169.1320 C.ar    1  UNL1       -0.0007
     25 C         141.2180  143.1366  169.7204 C.ar    1  UNL1        0.0366
     26 C         145.0979  143.1345  170.2601 C.3     1  UNL1        0.2525
     27 O         143.6580  143.4226  170.5660 O.3     1  UNL1       -0.4714
     28 N         141.4421  137.9888  164.5464 N.pl3   1  UNL1        0.0823
     29 O         142.4801  138.3909  165.5519 O.2     1  UNL1        0.0415
     30 O         141.0745  136.5435  164.3850 O.co2   1  UNL1       -0.5760
     31 N         138.1787  143.3856  161.8124 N.3     1  UNL1       -0.2940
     32 H         137.6323  143.0666  162.6125 H       1  UNL1        0.1235
     33 C         139.0832  144.4731  162.3116 C.3     1  UNL1        0.0543
     34 C         139.8718  145.0983  163.4238 C.3     1  UNL1        0.0171
     35 C         139.8612  145.7313  162.0640 C.3     1  UNL1        0.0171
@<TRIPOS>UNITY_ATOM_ATTR
28 1
charge 1
30 1
charge -1
@<TRIPOS>BOND
     1    26    27    1
     2    27    20    1
     3    20    21   ar
     4    21    22   ar
     5    22    23   ar
     6    23    19    1
     7    19    15    1
     8    15    16    2
     9    15    17   am
    10    17     1    1
    11     1     2   ar
    12     2     3   ar
    13     3     4   ar
    14     4     5   ar
    15     5     6   ar
    16     6    28    1
    17    28    29    2
    18    28    30    1
    19     4     7    1
    20     7     8    1
    21     8     9    1
    22     8    10    1
    23     8    11    1
    24    11    12    1
    25    11    13    1
    26    13    31    1
    27    31    33    1
    28    33    34    1
    29    34    35    1
    30    23    24   ar
    31    24    25   ar
    32    25    20   ar
    33     6     1   ar
    34    35    33    1
    35    13     3    1
    36    17    18    1
    37    12    14    1
    38    31    32    1
@<TRIPOS>MOLECULE
*****
 35 38 0 0 0
SMALL
GASTEIGER

@<TRIPOS>ATOM
      1 C         142.0101  140.4777  161.7592 C.ar    1  UNL1        0.1206
      2 C         142.0459  141.9575  161.5169 C.ar    1  UNL1        0.0210
      3 C         142.0743  142.4873  160.1139 C.ar    1  UNL1        0.0301
      4 C         142.0669  141.5372  158.9531 C.ar    1  UNL1        0.1418
      5 C         142.0311  140.0574  159.1954 C.ar    1  UNL1        0.1131
      6 C         142.0027  139.5276  160.5984 C.ar    1  UNL1        0.3062
      7 O         142.0953  142.0671  157.5501 O.3     1  UNL1       -0.4802
      8 C         142.1312  143.5469  157.3078 C.3     1  UNL1        0.1592
      9 C         142.1690  144.8545  156.5739 C.3     1  UNL1        0.0462
     10 C         142.1369  143.0510  155.8922 C.3     1  UNL1        0.0462
     11 C         142.1386  144.4970  158.4685 C.3     1  UNL1        0.1653
     12 O         142.1744  145.9769  158.2262 O.3     1  UNL1       -0.3793
     13 C         142.1101  143.9672  159.8715 C.3     1  UNL1        0.1105
     14 H         142.1895  146.1479  157.2715 H       1  UNL1        0.2106
     15 C         143.2424  139.4424  163.7987 C.2     1  UNL1        0.2307
     16 O         144.5315  139.4668  163.0321 O.2     1  UNL1       -0.2744
     17 N         141.9816  139.9478  163.1622 N.am    1  UNL1       -0.2789
     18 H         141.1355  139.9318  163.6653 H       1  UNL1        0.1550
     19 C         143.2140  138.9126  165.2017 C.3     1  UNL1        0.1117
     20 C         142.6538  141.7348  168.6617 C.ar    1  UNL1        0.1387
     21 C         142.5363  140.2546  168.8745 C.ar    1  UNL1        0.0366
     22 C         142.7231  139.3139  167.7212 C.ar    1  UNL1       -0.0007
     23 C         143.0273  139.8533  166.3550 C.ar    1  UNL1       -0.0129
     24 C         143.1447  141.3335  166.1421 C.ar    1  UNL1       -0.0007
     25 C         142.9580  142.2743  167.2955 C.ar    1  UNL1        0.0366
     26 C         141.1724  143.4153  169.9774 C.3     1  UNL1        0.2525
     27 O         142.4671  142.6755  169.8150 O.3     1  UNL1       -0.4714
     28 N         141.9668  138.0477  160.8408 N.pl3   1  UNL1        0.0823
     29 O         140.9199  137.4601  161.7400 O.2     1  UNL1        0.0415
     30 O         142.9779  137.1555  160.1839 O.co2   1  UNL1       -0.5760
     31 N         142.1175  144.9173  161.0323 N.3     1  UNL1       -0.2940
     32 H         142.5966  145.7615  160.7187 H       1  UNL1        0.1235
     33 C         140.8232  145.3577  161.6492 C.3     1  UNL1        0.0543
     34 C         139.7639  145.1978  162.6991 C.3     1  UNL1        0.0171
     35 C         139.6407  146.2803  161.6681 C.3     1  UNL1        0.0171
@<TRIPOS>UNITY_ATOM_ATTR
28 1
charge 1
30 1
charge -1
@<TRIPOS>BOND
     1    26    27    1
     2    27    20    1
     3    20    21   ar
     4    21    22   ar
     5    22    23   ar
     6    23    19    1
     7    19    15    1
     8    15    16    2
     9    15    17   am
    10    17     1    1
    11     1     2   ar
    12     2     3   ar
    13     3     4   ar
    14     4     5   ar
    15     5     6   ar
    16     6    28    1
    17    28    29    2
    18    28    30    1
    19     4     7    1
    20     7     8    1
    21     8     9    1
    22     8    10    1
    23     8    11    1
    24    11    12    1
    25    11    13    1
    26    13    31    1
    27    31    33    1
    28    33    34    1
    29    34    35    1
    30    23    24   ar
    31    24    25   ar
    32    25    20   ar
    33     6     1   ar
    34    35    33    1
    35    13     3    1
    36    17    18    1
    37    12    14    1
    38    31    32    1
@<TRIPOS>MOLECULE
*****
 35 38 0 0 0
SMALL
GASTEIGER

@<TRIPOS>ATOM
      1 C         142.6035  141.8775  163.2545 C.ar    1  UNL1        0.1206
      2 C         142.0387  140.9318  164.2726 C.ar    1  UNL1        0.0210
      3 C         142.3389  141.1306  165.7288 C.ar    1  UNL1        0.0301
      4 C         143.2039  142.2751  166.1668 C.ar    1  UNL1        0.1418
      5 C         143.7688  143.2208  165.1487 C.ar    1  UNL1        0.1131
      6 C         143.4686  143.0220  163.6926 C.ar    1  UNL1        0.3062
      7 O         143.5041  142.4738  167.6230 O.3     1  UNL1       -0.4802
      8 C         142.9393  141.5281  168.6411 C.3     1  UNL1        0.1592
      9 C         142.6386  140.9046  169.9718 C.3     1  UNL1        0.0462
     10 C         143.6999  142.4560  169.5412 C.3     1  UNL1        0.0462
     11 C         142.0743  140.3836  168.2031 C.3     1  UNL1        0.1653
     12 O         141.5095  139.4379  169.2212 O.3     1  UNL1       -0.3793
     13 C         141.7741  140.1848  166.7469 C.3     1  UNL1        0.1105
     14 H         141.7979  139.7069  170.1074 H       1  UNL1        0.2106
     15 C         141.0409  142.2357  161.2100 C.2     1  UNL1        0.2307
     16 O         140.0787  142.9914  162.0779 O.2     1  UNL1       -0.2744
     17 N         142.3033  141.6787  161.7983 N.am    1  UNL1       -0.2789
     18 H         142.9348  141.1827  161.2288 H       1  UNL1        0.1550
     19 C         140.7407  142.0370  159.7539 C.3     1  UNL1        0.1117
     20 C         140.4049  145.5953  157.0197 C.ar    1  UNL1        0.1387
     21 C         141.2049  145.6943  158.2846 C.ar    1  UNL1        0.0366
     22 C         141.3169  144.5082  159.1960 C.ar    1  UNL1       -0.0007
     23 C         140.6288  143.2231  158.8425 C.ar    1  UNL1       -0.0129
     24 C         139.8286  143.1241  157.5775 C.ar    1  UNL1       -0.0007
     25 C         139.7167  144.3102  156.6662 C.ar    1  UNL1        0.0366
     26 C         138.9463  147.3659  155.8000 C.3     1  UNL1        0.2525
     27 O         140.2929  146.7814  156.1083 O.3     1  UNL1       -0.4714
     28 N         144.0334  143.9677  162.6744 N.pl3   1  UNL1        0.0823
     29 O         144.0035  145.4461  162.9261 O.2     1  UNL1        0.0415
     30 O         144.6280  143.4350  161.4045 O.co2   1  UNL1       -0.5760
     31 N         140.9090  139.0403  166.3089 N.3     1  UNL1       -0.2940
     32 H         141.0616  138.2838  166.9759 H       1  UNL1        0.1235
     33 C         139.4247  139.2233  166.1938 C.3     1  UNL1        0.0543
     34 C         138.0359  138.8981  166.6581 C.3     1  UNL1        0.0171
     35 C         138.2426  139.8653  165.5304 C.3     1  UNL1        0.0171
@<TRIPOS>UNITY_ATOM_ATTR
28 1
charge 1
30 1
charge -1
@<TRIPOS>BOND
     1    26    27    1
     2    27    20    1
     3    20    21   ar
     4    21    22   ar
     5    22    23   ar
     6    23    19    1
     7    19    15    1
     8    15    16    2
     9    15    17   am
    10    17     1    1
    11     1     2   ar
    12     2     3   ar
    13     3     4   ar
    14     4     5   ar
    15     5     6   ar
    16     6    28    1
    17    28    29    2
    18    28    30    1
    19     4     7    1
    20     7     8    1
    21     8     9    1
    22     8    10    1
    23     8    11    1
    24    11    12    1
    25    11    13    1
    26    13    31    1
    27    31    33    1
    28    33    34    1
    29    34    35    1
    30    23    24   ar
    31    24    25   ar
    32    25    20   ar
    33     6     1   ar
    34    35    33    1
    35    13     3    1
    36    17    18    1
    37    12    14    1
    38    31    32    1
@<TRIPOS>MOLECULE
*****
 35 38 0 0 0
SMALL
GASTEIGER

@<TRIPOS>ATOM
      1 C         142.6917  141.9595  163.3738 C.ar    1  UNL1        0.1206
      2 C         142.1379  141.0100  164.3944 C.ar    1  UNL1        0.0210
      3 C         142.4436  141.2105  165.8491 C.ar    1  UNL1        0.0301
      4 C         143.3033  142.3605  166.2833 C.ar    1  UNL1        0.1418
      5 C         143.8572  143.3100  165.2627 C.ar    1  UNL1        0.1131
      6 C         143.5514  143.1095  163.8080 C.ar    1  UNL1        0.3062
      7 O         143.6091  142.5610  167.7381 O.3     1  UNL1       -0.4802
      8 C         143.0552  141.6115  168.7587 C.3     1  UNL1        0.1592
      9 C         142.7648  140.9860  170.0907 C.3     1  UNL1        0.0462
     10 C         143.8140  142.5443  169.6554 C.3     1  UNL1        0.0462
     11 C         142.1955  140.4615  168.3245 C.3     1  UNL1        0.1653
     12 O         141.6416  139.5120  169.3452 O.3     1  UNL1       -0.3793
     13 C         141.8898  140.2610  166.8698 C.3     1  UNL1        0.1105
     14 H         141.9325  139.7827  170.2301 H       1  UNL1        0.2106
     15 C         143.1660  140.7577  161.1198 C.2     1  UNL1        0.2307
     16 O         144.2518  139.9568  161.7753 O.2     1  UNL1       -0.2744
     17 N         142.3860  141.7590  161.9190 N.am    1  UNL1       -0.2789
     18 H         141.6733  142.2847  161.4888 H       1  UNL1        0.1550
     19 C         142.8603  140.5572  159.6651 C.3     1  UNL1        0.1117
     20 C         138.5869  140.4266  158.2611 C.ar    1  UNL1        0.1387
     21 C         139.2089  139.2125  158.8848 C.ar    1  UNL1        0.0366
     22 C         140.6333  139.2560  159.3528 C.ar    1  UNL1       -0.0007
     23 C         141.4358  140.5136  159.1971 C.ar    1  UNL1       -0.0129
     24 C         140.8139  141.7278  158.5733 C.ar    1  UNL1       -0.0007
     25 C         139.3894  141.6843  158.1053 C.ar    1  UNL1        0.0366
     26 C         136.7396  141.1897  156.6013 C.3     1  UNL1        0.2525
     27 O         137.1625  140.3831  157.7931 O.3     1  UNL1       -0.4714
     28 N         144.1053  144.0590  162.7873 N.pl3   1  UNL1        0.0823
     29 O         144.7527  143.5283  161.5427 O.2     1  UNL1        0.0415
     30 O         144.0117  145.5392  163.0113 O.co2   1  UNL1       -0.5760
     31 N         141.0301  139.1110  166.4357 N.3     1  UNL1       -0.2940
     32 H         141.1503  138.3746  167.1311 H       1  UNL1        0.1235
     33 C         139.5530  139.3034  166.2596 C.3     1  UNL1        0.0543
     34 C         138.1441  138.9848  166.6640 C.3     1  UNL1        0.0171
     35 C         138.4033  139.9553  165.5501 C.3     1  UNL1        0.0171
@<TRIPOS>UNITY_ATOM_ATTR
28 1
charge 1
30 1
charge -1
@<TRIPOS>BOND
     1    26    27    1
     2    27    20    1
     3    20    21   ar
     4    21    22   ar
     5    22    23   ar
     6    23    19    1
     7    19    15    1
     8    15    16    2
     9    15    17   am
    10    17     1    1
    11     1     2   ar
    12     2     3   ar
    13     3     4   ar
    14     4     5   ar
    15     5     6   ar
    16     6    28    1
    17    28    29    2
    18    28    30    1
    19     4     7    1
    20     7     8    1
    21     8     9    1
    22     8    10    1
    23     8    11    1
    24    11    12    1
    25    11    13    1
    26    13    31    1
    27    31    33    1
    28    33    34    1
    29    34    35    1
    30    23    24   ar
    31    24    25   ar
    32    25    20   ar
    33     6     1   ar
    34    35    33    1
    35    13     3    1
    36    17    18    1
    37    12    14    1
    38    31    32    1
@<TRIPOS>MOLECULE
*****
 35 38 0 0 0
SMALL
GASTEIGER

@<TRIPOS>ATOM
      1 C         138.8720  140.3522  158.6964 C.ar    1  UNL1        0.1206
      2 C         138.3854  141.0586  159.9269 C.ar    1  UNL1        0.0210
      3 C         138.4682  140.3813  161.2627 C.ar    1  UNL1        0.0301
      4 C         139.0375  138.9975  161.3680 C.ar    1  UNL1        0.1418
      5 C         139.5241  138.2911  160.1375 C.ar    1  UNL1        0.1131
      6 C         139.4414  138.9685  158.8017 C.ar    1  UNL1        0.3062
      7 O         139.1203  138.3202  162.7038 O.3     1  UNL1       -0.4802
      8 C         138.6336  139.0266  163.9343 C.3     1  UNL1        0.1592
      9 C         138.3051  139.2834  165.3752 C.3     1  UNL1        0.0462
     10 C         139.0889  137.7320  164.5400 C.3     1  UNL1        0.0462
     11 C         138.0643  140.4103  163.8290 C.3     1  UNL1        0.1653
     12 O         137.5777  141.1167  165.0596 O.3     1  UNL1       -0.3793
     13 C         137.9815  141.0877  162.4933 C.3     1  UNL1        0.1105
     14 H         137.7023  140.5434  165.8321 H       1  UNL1        0.2106
     15 C         137.4915  141.0490  156.6087 C.2     1  UNL1        0.2307
     16 O         136.2765  140.3911  157.1926 O.2     1  UNL1       -0.2744
     17 N         138.7893  141.0296  157.3606 N.am    1  UNL1       -0.2789
     18 H         139.5868  141.4613  156.9774 H       1  UNL1        0.1550
     19 C         137.4088  141.7263  155.2729 C.3     1  UNL1        0.1117
     20 C         139.4759  145.6693  154.6175 C.ar    1  UNL1        0.1387
     21 C         138.0560  145.6380  155.1001 C.ar    1  UNL1        0.0366
     22 C         137.3670  144.3236  155.3186 C.ar    1  UNL1       -0.0007
     23 C         138.0978  143.0406  155.0544 C.ar    1  UNL1       -0.0129
     24 C         139.5177  143.0720  154.5717 C.ar    1  UNL1       -0.0007
     25 C         140.2068  144.3863  154.3532 C.ar    1  UNL1        0.0366
     26 C         139.4422  148.2663  154.6865 C.3     1  UNL1        0.2525
     27 O         140.1649  146.9837  154.3990 O.3     1  UNL1       -0.4714
     28 N         139.9280  138.2621  157.5711 N.pl3   1  UNL1        0.0823
     29 O         141.3710  137.8698  157.4527 O.2     1  UNL1        0.0415
     30 O         138.9717  137.9479  156.4590 O.co2   1  UNL1       -0.5760
     31 N         137.4122  142.4714  162.3880 N.3     1  UNL1       -0.2940
     32 H         136.5778  142.4919  162.9744 H       1  UNL1        0.1235
     33 C         138.2447  143.6566  162.7780 C.3     1  UNL1        0.0543
     34 C         139.2294  144.7284  162.4150 C.3     1  UNL1        0.0171
     35 C         138.7021  144.6377  163.8163 C.3     1  UNL1        0.0171
@<TRIPOS>UNITY_ATOM_ATTR
28 1
charge 1
30 1
charge -1
@<TRIPOS>BOND
     1    26    27    1
     2    27    20    1
     3    20    21   ar
     4    21    22   ar
     5    22    23   ar
     6    23    19    1
     7    19    15    1
     8    15    16    2
     9    15    17   am
    10    17     1    1
    11     1     2   ar
    12     2     3   ar
    13     3     4   ar
    14     4     5   ar
    15     5     6   ar
    16     6    28    1
    17    28    29    2
    18    28    30    1
    19     4     7    1
    20     7     8    1
    21     8     9    1
    22     8    10    1
    23     8    11    1
    24    11    12    1
    25    11    13    1
    26    13    31    1
    27    31    33    1
    28    33    34    1
    29    34    35    1
    30    23    24   ar
    31    24    25   ar
    32    25    20   ar
    33     6     1   ar
    34    35    33    1
    35    13     3    1
    36    17    18    1
    37    12    14    1
    38    31    32    1
