@<TRIPOS>MOLECULE
*****
 35 40 0 0 0
SMALL
GASTEIGER

@<TRIPOS>ATOM
      1 C         139.8922  139.9417  164.7071 C.ar    1  UNL1        0.0751
      2 C         141.0268  138.9610  164.6793 C.ar    1  UNL1        0.0161
      3 C         141.9206  138.8821  163.4772 C.ar    1  UNL1        0.0028
      4 C         141.6797  139.7838  162.3030 C.ar    1  UNL1        0.0191
      5 C         142.5735  139.7048  161.1009 C.ar    1  UNL1        0.0192
      6 C         142.3326  140.6066  159.9267 C.ar    1  UNL1        0.0684
      7 C         141.1980  141.5874  159.9545 C.ar    1  UNL1        0.0192
      8 C         140.3042  141.6663  161.1566 C.ar    1  UNL1        0.0206
      9 C         140.5451  140.7645  162.3308 C.ar    1  UNL1        0.0810
     10 N         139.6513  140.8435  163.5328 N.ar    1  UNL1       -0.2483
     11 N         143.2264  140.5277  158.7246 N.ar    1  UNL1       -0.2563
     12 C         143.0010  139.4642  157.6910 C.ar    1  UNL1        0.1851
     13 N         143.8947  139.3853  156.4889 N.ar    1  UNL1       -0.2244
     14 C         145.0139  140.3697  156.3205 C.ar    1  UNL1        0.0941
     15 C         146.0495  140.5383  155.2486 C.ar    1  UNL1        0.0263
     16 C         146.9150  141.7058  155.6197 C.ar    1  UNL1        0.0312
     17 S         146.4142  142.2589  156.9210 S.2     1  UNL1       -0.0807
     18 C         145.2393  141.4331  157.3541 C.ar    1  UNL1        0.1036
     19 C         144.3456  141.5121  158.5562 C.ar    1  UNL1        0.2733
     20 O         144.5710  142.5754  159.5898 O.2     1  UNL1       -0.2660
     21 C         148.0772  142.2286  154.8284 C.ar    1  UNL1        0.0061
     22 C         149.4576  141.7009  155.0855 C.ar    1  UNL1        0.0014
     23 C         150.6197  142.2236  154.2943 C.ar    1  UNL1        0.0114
     24 C         150.4016  143.2741  153.2460 C.ar    1  UNL1        0.0577
     25 CL        151.5638  143.7969  152.4548 Cl      1  UNL1       -0.0822
     26 C         149.0212  143.8019  152.9890 C.ar    1  UNL1        0.0114
     27 C         147.8590  143.2791  153.7802 C.ar    1  UNL1        0.0014
     28 C         138.9984  140.0207  165.9091 C.3     1  UNL1        0.1187
     29 C         141.1221  142.1759  171.0903 C.3     1  UNL1        0.0897
     30 N         140.5912  141.6371  169.7951 N.3     1  UNL1       -0.2691
     31 C         140.9815  142.2821  168.4983 C.3     1  UNL1        0.0897
     32 C         140.4505  141.7433  167.2029 C.3     1  UNL1        0.0900
     33 N         139.5293  140.5595  167.2044 N.3     1  UNL1       -0.2652
     34 C         139.1390  139.9145  168.5013 C.3     1  UNL1        0.0900
     35 C         139.6699  140.4533  169.7965 C.3     1  UNL1        0.0897
@<TRIPOS>BOND
     1    29    30    1
     2    30    31    1
     3    31    32    1
     4    32    33    1
     5    33    28    1
     6    28     1    1
     7     1     2   ar
     8     2     3   ar
     9     3     4   ar
    10     4     5   ar
    11     5     6   ar
    12     6    11    1
    13    11    12   ar
    14    12    13   ar
    15    13    14   ar
    16    14    15   ar
    17    15    16   ar
    18    16    21    1
    19    21    22   ar
    20    22    23   ar
    21    23    24   ar
    22    24    25    1
    23    24    26   ar
    24    26    27   ar
    25    16    17   ar
    26    17    18   ar
    27    18    19   ar
    28    19    20    2
    29     6     7   ar
    30     7     8   ar
    31     8     9   ar
    32     9    10   ar
    33    33    34    1
    34    34    35    1
    35    35    30    1
    36    10     1   ar
    37     9     4   ar
    38    19    11   ar
    39    18    14   ar
    40    27    21   ar
@<TRIPOS>MOLECULE
*****
 35 40 0 0 0
SMALL
GASTEIGER

@<TRIPOS>ATOM
      1 C         141.9818  135.3521  154.6107 C.ar    1  UNL1        0.0751
      2 C         143.2900  135.5112  155.3271 C.ar    1  UNL1        0.0161
      3 C         143.3794  136.3910  156.5387 C.ar    1  UNL1        0.0028
      4 C         142.1606  137.1116  157.0339 C.ar    1  UNL1        0.0191
      5 C         142.2500  137.9914  158.2456 C.ar    1  UNL1        0.0192
      6 C         141.0312  138.7120  158.7408 C.ar    1  UNL1        0.0684
      7 C         139.7229  138.5528  158.0243 C.ar    1  UNL1        0.0192
      8 C         139.6335  137.6730  156.8127 C.ar    1  UNL1        0.0206
      9 C         140.8524  136.9524  156.3175 C.ar    1  UNL1        0.0810
     10 N         140.7630  136.0727  155.1059 N.ar    1  UNL1       -0.2483
     11 N         141.1206  139.5917  159.9524 N.ar    1  UNL1       -0.2563
     12 C         141.6646  140.9842  159.8297 C.ar    1  UNL1        0.1851
     13 N         141.7540  141.8640  161.0413 N.ar    1  UNL1       -0.2244
     14 C         141.2993  141.3513  162.3756 C.ar    1  UNL1        0.0941
     15 C         141.2669  141.9831  163.7356 C.ar    1  UNL1        0.0263
     16 C         140.7028  140.9812  164.6989 C.ar    1  UNL1        0.0312
     17 S         140.3866  139.7301  163.9342 S.2     1  UNL1       -0.0807
     18 C         140.7553  139.9589  162.4983 C.ar    1  UNL1        0.1036
     19 C         140.6659  139.0790  161.2867 C.ar    1  UNL1        0.2733
     20 O         140.1219  137.6866  161.4094 O.2     1  UNL1       -0.2660
     21 C         140.4919  141.1931  166.1688 C.ar    1  UNL1        0.0061
     22 C         140.9369  142.4723  166.8136 C.ar    1  UNL1        0.0014
     23 C         140.7260  142.6843  168.2835 C.ar    1  UNL1        0.0114
     24 C         140.0702  141.6170  169.1086 C.ar    1  UNL1        0.0577
     25 CL        139.8593  141.8290  170.5785 Cl      1  UNL1       -0.0822
     26 C         139.6252  140.3378  168.4638 C.ar    1  UNL1        0.0114
     27 C         139.8361  140.1259  166.9940 C.ar    1  UNL1        0.0014
     28 C         141.8924  134.4723  153.3991 C.3     1  UNL1        0.1187
     29 C         139.8137  128.8670  153.9084 C.3     1  UNL1        0.0897
     30 N         140.3334  130.2683  153.7810 N.3     1  UNL1       -0.2691
     31 C         140.9910  130.9337  154.9535 C.3     1  UNL1        0.0897
     32 C         141.5107  132.3351  154.8262 C.3     1  UNL1        0.0900
     33 N         141.3727  133.0710  153.5264 N.3     1  UNL1       -0.2652
     34 C         140.7150  132.4055  152.3539 C.3     1  UNL1        0.0900
     35 C         140.1954  131.0042  152.4813 C.3     1  UNL1        0.0897
@<TRIPOS>BOND
     1    29    30    1
     2    30    31    1
     3    31    32    1
     4    32    33    1
     5    33    28    1
     6    28     1    1
     7     1     2   ar
     8     2     3   ar
     9     3     4   ar
    10     4     5   ar
    11     5     6   ar
    12     6    11    1
    13    11    12   ar
    14    12    13   ar
    15    13    14   ar
    16    14    15   ar
    17    15    16   ar
    18    16    21    1
    19    21    22   ar
    20    22    23   ar
    21    23    24   ar
    22    24    25    1
    23    24    26   ar
    24    26    27   ar
    25    16    17   ar
    26    17    18   ar
    27    18    19   ar
    28    19    20    2
    29     6     7   ar
    30     7     8   ar
    31     8     9   ar
    32     9    10   ar
    33    33    34    1
    34    34    35    1
    35    35    30    1
    36    10     1   ar
    37     9     4   ar
    38    19    11   ar
    39    18    14   ar
    40    27    21   ar
@<TRIPOS>MOLECULE
*****
 35 40 0 0 0
SMALL
GASTEIGER

@<TRIPOS>ATOM
      1 C         139.4185  139.9333  164.7950 C.ar    1  UNL1        0.0751
      2 C         138.1001  140.6131  164.5725 C.ar    1  UNL1        0.0161
      3 C         137.8520  141.3709  163.3020 C.ar    1  UNL1        0.0028
      4 C         138.9224  141.4488  162.2540 C.ar    1  UNL1        0.0191
      5 C         138.6743  142.2066  160.9834 C.ar    1  UNL1        0.0192
      6 C         139.7446  142.2845  159.9354 C.ar    1  UNL1        0.0684
      7 C         141.0631  141.6046  160.1580 C.ar    1  UNL1        0.0192
      8 C         141.3111  140.8469  161.4285 C.ar    1  UNL1        0.0206
      9 C         140.2408  140.7690  162.4765 C.ar    1  UNL1        0.0810
     10 N         140.4889  140.0112  163.7470 N.ar    1  UNL1       -0.2483
     11 N         139.4965  143.0423  158.6649 N.ar    1  UNL1       -0.2563
     12 C         138.7873  142.3784  157.5220 C.ar    1  UNL1        0.1851
     13 N         138.5392  143.1362  156.2515 N.ar    1  UNL1       -0.2244
     14 C         139.0004  144.5578  156.1239 C.ar    1  UNL1        0.0941
     15 C         138.8982  145.5494  155.0030 C.ar    1  UNL1        0.0263
     16 C         139.5443  146.8260  155.4531 C.ar    1  UNL1        0.0312
     17 S         140.0458  146.6235  156.8523 S.2     1  UNL1       -0.0807
     18 C         139.7096  145.2217  157.2667 C.ar    1  UNL1        0.1036
     19 C         139.9577  144.4639  158.5373 C.ar    1  UNL1        0.2733
     20 O         140.6669  145.1278  159.6802 O.2     1  UNL1       -0.2660
     21 C         139.6673  148.0844  154.6459 C.ar    1  UNL1        0.0061
     22 C         140.3514  148.0553  153.3113 C.ar    1  UNL1        0.0014
     23 C         140.4744  149.3136  152.5040 C.ar    1  UNL1        0.0114
     24 C         139.9135  150.6008  153.0315 C.ar    1  UNL1        0.0577
     25 CL        140.0365  151.8592  152.2242 Cl      1  UNL1       -0.0822
     26 C         139.2294  150.6298  154.3661 C.ar    1  UNL1        0.0114
     27 C         139.1064  149.3716  155.1733 C.ar    1  UNL1        0.0014
     28 C         139.6666  139.1755  166.0656 C.3     1  UNL1        0.1187
     29 C         141.7958  142.0302  170.8943 C.3     1  UNL1        0.0897
     30 N         141.2635  141.3165  169.6871 N.3     1  UNL1       -0.2691
     31 C         139.8631  140.7792  169.6904 C.3     1  UNL1        0.0897
     32 C         139.3307  140.0655  168.4832 C.3     1  UNL1        0.0900
     33 N         140.1989  139.8891  167.2727 N.3     1  UNL1       -0.2652
     34 C         141.5994  140.4265  167.2695 C.3     1  UNL1        0.0900
     35 C         142.1317  141.1402  168.4767 C.3     1  UNL1        0.0897
@<TRIPOS>BOND
     1    29    30    1
     2    30    31    1
     3    31    32    1
     4    32    33    1
     5    33    28    1
     6    28     1    1
     7     1     2   ar
     8     2     3   ar
     9     3     4   ar
    10     4     5   ar
    11     5     6   ar
    12     6    11    1
    13    11    12   ar
    14    12    13   ar
    15    13    14   ar
    16    14    15   ar
    17    15    16   ar
    18    16    21    1
    19    21    22   ar
    20    22    23   ar
    21    23    24   ar
    22    24    25    1
    23    24    26   ar
    24    26    27   ar
    25    16    17   ar
    26    17    18   ar
    27    18    19   ar
    28    19    20    2
    29     6     7   ar
    30     7     8   ar
    31     8     9   ar
    32     9    10   ar
    33    33    34    1
    34    34    35    1
    35    35    30    1
    36    10     1   ar
    37     9     4   ar
    38    19    11   ar
    39    18    14   ar
    40    27    21   ar
@<TRIPOS>MOLECULE
*****
 35 40 0 0 0
SMALL
GASTEIGER

@<TRIPOS>ATOM
      1 C         147.1941  141.9253  155.1409 C.ar    1  UNL1        0.0751
      2 C         147.8653  142.5849  156.3089 C.ar    1  UNL1        0.0161
      3 C         147.0910  142.8535  157.5652 C.ar    1  UNL1        0.0028
      4 C         145.6455  142.4625  157.6535 C.ar    1  UNL1        0.0191
      5 C         144.8713  142.7312  158.9098 C.ar    1  UNL1        0.0192
      6 C         143.4258  142.3402  158.9981 C.ar    1  UNL1        0.0684
      7 C         142.7546  141.6806  157.8300 C.ar    1  UNL1        0.0192
      8 C         143.5289  141.4119  156.5737 C.ar    1  UNL1        0.0206
      9 C         144.9744  141.8029  156.4854 C.ar    1  UNL1        0.0810
     10 N         145.7486  141.5343  155.2291 N.ar    1  UNL1       -0.2483
     11 N         142.6515  142.6089  160.2544 N.ar    1  UNL1       -0.2563
     12 C         141.8242  143.8545  160.3736 C.ar    1  UNL1        0.1851
     13 N         141.0500  144.1231  161.6299 N.ar    1  UNL1       -0.2244
     14 C         141.1029  143.1462  162.7670 C.ar    1  UNL1        0.0941
     15 C         140.4512  143.1422  164.1180 C.ar    1  UNL1        0.0263
     16 C         140.8757  141.8942  164.8337 C.ar    1  UNL1        0.0312
     17 S         141.7898  141.1269  163.9250 S.2     1  UNL1       -0.0807
     18 C         141.9302  141.9007  162.6477 C.ar    1  UNL1        0.1036
     19 C         142.7045  141.6320  161.3914 C.ar    1  UNL1        0.2733
     20 O         143.5318  140.3864  161.2722 O.2     1  UNL1       -0.2660
     21 C         140.4593  141.4853  166.2155 C.ar    1  UNL1        0.0061
     22 C         140.8157  142.3454  167.3916 C.ar    1  UNL1        0.0014
     23 C         140.3993  141.9365  168.7734 C.ar    1  UNL1        0.0114
     24 C         139.6265  140.6675  168.9791 C.ar    1  UNL1        0.0577
     25 CL        139.2100  140.2586  170.3610 Cl      1  UNL1       -0.0822
     26 C         139.2700  139.8074  167.8030 C.ar    1  UNL1        0.0114
     27 C         139.6864  140.2163  166.4212 C.ar    1  UNL1        0.0014
     28 C         147.9684  141.6566  153.8845 C.3     1  UNL1        0.1187
     29 C         153.6356  143.5631  153.3875 C.3     1  UNL1        0.0897
     30 N         152.2188  143.0865  153.5118 N.3     1  UNL1       -0.2691
     31 C         151.0960  143.9243  152.9759 C.3     1  UNL1        0.0897
     32 C         149.6791  143.4477  153.1002 C.3     1  UNL1        0.0900
     33 N         149.3851  142.1332  153.7603 N.3     1  UNL1       -0.2652
     34 C         150.5081  141.2954  154.2961 C.3     1  UNL1        0.0900
     35 C         151.9249  141.7720  154.1719 C.3     1  UNL1        0.0897
@<TRIPOS>BOND
     1    29    30    1
     2    30    31    1
     3    31    32    1
     4    32    33    1
     5    33    28    1
     6    28     1    1
     7     1     2   ar
     8     2     3   ar
     9     3     4   ar
    10     4     5   ar
    11     5     6   ar
    12     6    11    1
    13    11    12   ar
    14    12    13   ar
    15    13    14   ar
    16    14    15   ar
    17    15    16   ar
    18    16    21    1
    19    21    22   ar
    20    22    23   ar
    21    23    24   ar
    22    24    25    1
    23    24    26   ar
    24    26    27   ar
    25    16    17   ar
    26    17    18   ar
    27    18    19   ar
    28    19    20    2
    29     6     7   ar
    30     7     8   ar
    31     8     9   ar
    32     9    10   ar
    33    33    34    1
    34    34    35    1
    35    35    30    1
    36    10     1   ar
    37     9     4   ar
    38    19    11   ar
    39    18    14   ar
    40    27    21   ar
@<TRIPOS>MOLECULE
*****
 35 40 0 0 0
SMALL
GASTEIGER

@<TRIPOS>ATOM
      1 C         141.5866  139.7725  164.5257 C.ar    1  UNL1        0.0751
      2 C         142.8625  140.2769  163.9194 C.ar    1  UNL1        0.0161
      3 C         142.8325  141.0113  162.6119 C.ar    1  UNL1        0.0028
      4 C         141.5266  141.2412  161.9106 C.ar    1  UNL1        0.0191
      5 C         141.4967  141.9756  160.6029 C.ar    1  UNL1        0.0192
      6 C         140.1908  142.2055  159.9017 C.ar    1  UNL1        0.0684
      7 C         138.9149  141.7011  160.5080 C.ar    1  UNL1        0.0192
      8 C         138.9449  140.9668  161.8156 C.ar    1  UNL1        0.0206
      9 C         140.2507  140.7368  162.5169 C.ar    1  UNL1        0.0810
     10 N         140.2807  140.0025  163.8245 N.ar    1  UNL1       -0.2483
     11 N         140.1608  142.9399  158.5941 N.ar    1  UNL1       -0.2563
     12 C         140.2681  142.1806  157.3048 C.ar    1  UNL1        0.1851
     13 N         140.2381  142.9149  155.9973 N.ar    1  UNL1       -0.2244
     14 C         140.1008  144.4085  155.9788 C.ar    1  UNL1        0.0941
     15 C         140.0421  145.3972  154.8523 C.ar    1  UNL1        0.0263
     16 C         139.8986  146.7675  155.4453 C.ar    1  UNL1        0.0312
     17 S         139.8686  146.6257  156.9383 S.2     1  UNL1       -0.0807
     18 C         139.9936  145.1678  157.2680 C.ar    1  UNL1        0.1036
     19 C         140.0236  144.4335  158.5757 C.ar    1  UNL1        0.2733
     20 O         139.9163  145.1927  159.8648 O.2     1  UNL1       -0.2660
     21 C         139.8021  148.0539  154.6797 C.ar    1  UNL1        0.0061
     22 C         139.1295  149.2447  155.2959 C.ar    1  UNL1        0.0014
     23 C         139.0329  150.5310  154.5304 C.ar    1  UNL1        0.0114
     24 C         139.6089  150.6265  153.1487 C.ar    1  UNL1        0.0577
     25 CL        139.5123  151.9129  152.3831 Cl      1  UNL1       -0.0822
     26 C         140.2815  149.4357  152.5325 C.ar    1  UNL1        0.0114
     27 C         140.3780  148.1494  153.2981 C.ar    1  UNL1        0.0014
     28 C         141.6166  139.0382  165.8334 C.3     1  UNL1        0.1187
     29 C         141.2845  142.0833  170.9925 C.3     1  UNL1        0.0897
     30 N         141.3675  141.3220  169.7028 N.3     1  UNL1       -0.2691
     31 C         142.4906  140.3544  169.4740 C.3     1  UNL1        0.0897
     32 C         142.5737  139.5931  168.1841 C.3     1  UNL1        0.0900
     33 N         141.5336  139.7994  167.1232 N.3     1  UNL1       -0.2652
     34 C         140.4104  140.7671  167.3520 C.3     1  UNL1        0.0900
     35 C         140.3274  141.5283  168.6418 C.3     1  UNL1        0.0897
@<TRIPOS>BOND
     1    29    30    1
     2    30    31    1
     3    31    32    1
     4    32    33    1
     5    33    28    1
     6    28     1    1
     7     1     2   ar
     8     2     3   ar
     9     3     4   ar
    10     4     5   ar
    11     5     6   ar
    12     6    11    1
    13    11    12   ar
    14    12    13   ar
    15    13    14   ar
    16    14    15   ar
    17    15    16   ar
    18    16    21    1
    19    21    22   ar
    20    22    23   ar
    21    23    24   ar
    22    24    25    1
    23    24    26   ar
    24    26    27   ar
    25    16    17   ar
    26    17    18   ar
    27    18    19   ar
    28    19    20    2
    29     6     7   ar
    30     7     8   ar
    31     8     9   ar
    32     9    10   ar
    33    33    34    1
    34    34    35    1
    35    35    30    1
    36    10     1   ar
    37     9     4   ar
    38    19    11   ar
    39    18    14   ar
    40    27    21   ar
@<TRIPOS>MOLECULE
*****
 35 40 0 0 0
SMALL
GASTEIGER

@<TRIPOS>ATOM
      1 C         140.6521  141.9516  162.7113 C.ar    1  UNL1        0.0751
      2 C         139.9486  140.6615  163.0125 C.ar    1  UNL1        0.0161
      3 C         139.9510  139.5525  162.0026 C.ar    1  UNL1        0.0028
      4 C         140.6568  139.7335  160.6915 C.ar    1  UNL1        0.0191
      5 C         140.6592  138.6244  159.6816 C.ar    1  UNL1        0.0192
      6 C         141.3651  138.8054  158.3705 C.ar    1  UNL1        0.0684
      7 C         142.0686  140.0956  158.0693 C.ar    1  UNL1        0.0192
      8 C         142.0662  141.2046  159.0792 C.ar    1  UNL1        0.0206
      9 C         141.3603  141.0236  160.3903 C.ar    1  UNL1        0.0810
     10 N         141.3579  142.1326  161.4002 N.ar    1  UNL1       -0.2483
     11 N         141.3674  137.6964  157.3605 N.ar    1  UNL1       -0.2563
     12 C         140.3771  137.7058  156.2339 C.ar    1  UNL1        0.1851
     13 N         140.3795  136.5967  155.2240 N.ar    1  UNL1       -0.2244
     14 C         141.3722  135.4783  155.3406 C.ar    1  UNL1        0.0941
     15 C         141.6125  134.2580  154.5020 C.ar    1  UNL1        0.0263
     16 C         142.7514  133.4945  155.1103 C.ar    1  UNL1        0.0312
     17 S         143.2149  134.2428  156.3249 S.2     1  UNL1       -0.0807
     18 C         142.3625  135.4688  156.4672 C.ar    1  UNL1        0.1036
     19 C         142.3601  136.5779  157.4772 C.ar    1  UNL1        0.2733
     20 O         143.3504  136.5685  158.6038 O.2     1  UNL1       -0.2660
     21 C         143.3259  132.2084  154.5946 C.ar    1  UNL1        0.0061
     22 C         144.2537  131.4030  155.4551 C.ar    1  UNL1        0.0014
     23 C         144.8282  130.1170  154.9395 C.ar    1  UNL1        0.0114
     24 C         144.4749  129.6363  153.5632 C.ar    1  UNL1        0.0577
     25 CL        145.0495  128.3502  153.0475 Cl      1  UNL1       -0.0822
     26 C         143.5472  130.4417  152.7026 C.ar    1  UNL1        0.0114
     27 C         142.9727  131.7277  153.2183 C.ar    1  UNL1        0.0014
     28 C         140.6497  143.0607  163.7213 C.3     1  UNL1        0.1187
     29 C         143.0525  142.1816  169.1483 C.3     1  UNL1        0.0897
     30 N         142.4518  142.4013  167.7916 N.3     1  UNL1       -0.2691
     31 C         143.3389  142.5051  166.5865 C.3     1  UNL1        0.0897
     32 C         142.7382  142.7249  165.2297 C.3     1  UNL1        0.0900
     33 N         141.2504  142.8409  165.0780 N.3     1  UNL1       -0.2652
     34 C         140.3633  142.7372  166.2832 C.3     1  UNL1        0.0900
     35 C         140.9640  142.5174  167.6399 C.3     1  UNL1        0.0897
@<TRIPOS>BOND
     1    29    30    1
     2    30    31    1
     3    31    32    1
     4    32    33    1
     5    33    28    1
     6    28     1    1
     7     1     2   ar
     8     2     3   ar
     9     3     4   ar
    10     4     5   ar
    11     5     6   ar
    12     6    11    1
    13    11    12   ar
    14    12    13   ar
    15    13    14   ar
    16    14    15   ar
    17    15    16   ar
    18    16    21    1
    19    21    22   ar
    20    22    23   ar
    21    23    24   ar
    22    24    25    1
    23    24    26   ar
    24    26    27   ar
    25    16    17   ar
    26    17    18   ar
    27    18    19   ar
    28    19    20    2
    29     6     7   ar
    30     7     8   ar
    31     8     9   ar
    32     9    10   ar
    33    33    34    1
    34    34    35    1
    35    35    30    1
    36    10     1   ar
    37     9     4   ar
    38    19    11   ar
    39    18    14   ar
    40    27    21   ar
@<TRIPOS>MOLECULE
*****
 35 40 0 0 0
SMALL
GASTEIGER

@<TRIPOS>ATOM
      1 C         140.9854  142.3494  164.4596 C.ar    1  UNL1        0.0751
      2 C         139.7920  141.5156  164.0982 C.ar    1  UNL1        0.0161
      3 C         139.8080  140.6850  162.8493 C.ar    1  UNL1        0.0028
      4 C         141.0172  140.6883  161.9618 C.ar    1  UNL1        0.0191
      5 C         141.0331  139.8577  160.7128 C.ar    1  UNL1        0.0192
      6 C         142.2423  139.8609  159.8252 C.ar    1  UNL1        0.0684
      7 C         143.4357  140.6948  160.1867 C.ar    1  UNL1        0.0192
      8 C         143.4198  141.5253  161.4357 C.ar    1  UNL1        0.0206
      9 C         142.2105  141.5221  162.3232 C.ar    1  UNL1        0.0810
     10 N         142.1946  142.3526  163.5721 N.ar    1  UNL1       -0.2483
     11 N         142.2583  139.0304  158.5763 N.ar    1  UNL1       -0.2563
     12 C         141.8959  139.6497  157.2590 C.ar    1  UNL1        0.1851
     13 N         141.9118  138.8192  156.0101 N.ar    1  UNL1       -0.2244
     14 C         142.2901  137.3693  156.0783 C.ar    1  UNL1        0.0941
     15 C         142.3946  136.3085  155.0230 C.ar    1  UNL1        0.0263
     16 C         142.8215  135.0335  155.6880 C.ar    1  UNL1        0.0312
     17 S         142.9809  135.3064  157.1543 S.2     1  UNL1       -0.0807
     18 C         142.6525  136.7499  157.3955 C.ar    1  UNL1        0.1036
     19 C         142.6366  137.5805  158.6446 C.ar    1  UNL1        0.2733
     20 O         142.9989  136.9611  159.9617 O.2     1  UNL1       -0.2660
     21 C         143.0491  133.7168  155.0063 C.ar    1  UNL1        0.0061
     22 C         143.9224  132.6805  155.6492 C.ar    1  UNL1        0.0014
     23 C         144.1500  131.3639  154.9676 C.ar    1  UNL1        0.0114
     24 C         143.5044  131.0836  153.6430 C.ar    1  UNL1        0.0577
     25 CL        143.7320  129.7669  152.9614 Cl      1  UNL1       -0.0822
     26 C         142.6312  132.1200  153.0001 C.ar    1  UNL1        0.0114
     27 C         142.4035  133.4366  153.6817 C.ar    1  UNL1        0.0014
     28 C         140.9695  143.1800  165.7086 C.3     1  UNL1        0.1187
     29 C         142.0521  140.6217  171.0268 C.3     1  UNL1        0.0897
     30 N         141.7815  141.2613  169.6973 N.3     1  UNL1       -0.2691
     31 C         142.5824  140.8590  168.4946 C.3     1  UNL1        0.0897
     32 C         142.3118  141.4985  167.1650 C.3     1  UNL1        0.0900
     33 N         141.2402  142.5404  167.0381 N.3     1  UNL1       -0.2652
     34 C         140.4391  142.9427  168.2409 C.3     1  UNL1        0.0900
     35 C         140.7098  142.3031  169.5704 C.3     1  UNL1        0.0897
@<TRIPOS>BOND
     1    29    30    1
     2    30    31    1
     3    31    32    1
     4    32    33    1
     5    33    28    1
     6    28     1    1
     7     1     2   ar
     8     2     3   ar
     9     3     4   ar
    10     4     5   ar
    11     5     6   ar
    12     6    11    1
    13    11    12   ar
    14    12    13   ar
    15    13    14   ar
    16    14    15   ar
    17    15    16   ar
    18    16    21    1
    19    21    22   ar
    20    22    23   ar
    21    23    24   ar
    22    24    25    1
    23    24    26   ar
    24    26    27   ar
    25    16    17   ar
    26    17    18   ar
    27    18    19   ar
    28    19    20    2
    29     6     7   ar
    30     7     8   ar
    31     8     9   ar
    32     9    10   ar
    33    33    34    1
    34    34    35    1
    35    35    30    1
    36    10     1   ar
    37     9     4   ar
    38    19    11   ar
    39    18    14   ar
    40    27    21   ar
@<TRIPOS>MOLECULE
*****
 35 40 0 0 0
SMALL
GASTEIGER

@<TRIPOS>ATOM
      1 C         146.3263  141.6768  154.6436 C.ar    1  UNL1        0.0751
      2 C         145.7069  140.3123  154.5781 C.ar    1  UNL1        0.0161
      3 C         144.9151  139.7915  155.7408 C.ar    1  UNL1        0.0028
      4 C         144.7426  140.6353  156.9688 C.ar    1  UNL1        0.0191
      5 C         143.9507  140.1145  158.1315 C.ar    1  UNL1        0.0192
      6 C         143.7781  140.9584  159.3596 C.ar    1  UNL1        0.0684
      7 C         144.3975  142.3230  159.4250 C.ar    1  UNL1        0.0192
      8 C         145.1893  142.8438  158.2624 C.ar    1  UNL1        0.0206
      9 C         145.3619  141.9999  157.0343 C.ar    1  UNL1        0.0810
     10 N         146.1537  142.5207  155.8717 N.ar    1  UNL1       -0.2483
     11 N         142.9863  140.4376  160.5222 N.ar    1  UNL1       -0.2563
     12 C         141.9267  139.3987  160.3029 C.ar    1  UNL1        0.1851
     13 N         141.1349  138.8779  161.4655 N.ar    1  UNL1       -0.2244
     14 C         141.4025  139.3961  162.8475 C.ar    1  UNL1        0.0941
     15 C         140.7872  139.0736  164.1770 C.ar    1  UNL1        0.0263
     16 C         141.4665  139.9132  165.2179 C.ar    1  UNL1        0.0312
     17 S         142.5015  140.7546  164.5318 S.2     1  UNL1       -0.0807
     18 C         142.4620  140.4350  163.0669 C.ar    1  UNL1        0.1036
     19 C         143.2539  140.9558  161.9042 C.ar    1  UNL1        0.2733
     20 O         144.3133  141.9947  162.1236 O.2     1  UNL1       -0.2660
     21 C         141.1638  139.9118  166.6871 C.ar    1  UNL1        0.0061
     22 C         142.2623  139.6674  167.6789 C.ar    1  UNL1        0.0014
     23 C         141.9597  139.6659  169.1480 C.ar    1  UNL1        0.0114
     24 C         140.5586  139.9088  169.6254 C.ar    1  UNL1        0.0577
     25 CL        140.2559  139.9073  171.0946 Cl      1  UNL1       -0.0822
     26 C         139.4601  140.1532  168.6336 C.ar    1  UNL1        0.0114
     27 C         139.7627  140.1546  167.1645 C.ar    1  UNL1        0.0014
     28 C         147.1182  142.1976  153.4809 C.3     1  UNL1        0.1187
     29 C         153.0226  143.1060  154.0389 C.3     1  UNL1        0.0897
     30 N         151.5465  142.8789  153.8994 N.3     1  UNL1       -0.2691
     31 C         150.7812  143.5692  152.8096 C.3     1  UNL1        0.0897
     32 C         149.3051  143.3422  152.6701 C.3     1  UNL1        0.0900
     33 N         148.5943  142.4247  153.6204 N.3     1  UNL1       -0.2652
     34 C         149.3596  141.7344  154.7103 C.3     1  UNL1        0.0900
     35 C         150.8357  141.9615  154.8497 C.3     1  UNL1        0.0897
@<TRIPOS>BOND
     1    29    30    1
     2    30    31    1
     3    31    32    1
     4    32    33    1
     5    33    28    1
     6    28     1    1
     7     1     2   ar
     8     2     3   ar
     9     3     4   ar
    10     4     5   ar
    11     5     6   ar
    12     6    11    1
    13    11    12   ar
    14    12    13   ar
    15    13    14   ar
    16    14    15   ar
    17    15    16   ar
    18    16    21    1
    19    21    22   ar
    20    22    23   ar
    21    23    24   ar
    22    24    25    1
    23    24    26   ar
    24    26    27   ar
    25    16    17   ar
    26    17    18   ar
    27    18    19   ar
    28    19    20    2
    29     6     7   ar
    30     7     8   ar
    31     8     9   ar
    32     9    10   ar
    33    33    34    1
    34    34    35    1
    35    35    30    1
    36    10     1   ar
    37     9     4   ar
    38    19    11   ar
    39    18    14   ar
    40    27    21   ar
@<TRIPOS>MOLECULE
*****
 35 40 0 0 0
SMALL
GASTEIGER

@<TRIPOS>ATOM
      1 C         139.0466  139.4852  165.2280 C.ar    1  UNL1        0.0751
      2 C         138.7005  140.6864  164.3990 C.ar    1  UNL1        0.0161
      3 C         139.2891  140.8468  163.0287 C.ar    1  UNL1        0.0028
      4 C         140.2238  139.8059  162.4874 C.ar    1  UNL1        0.0191
      5 C         140.8124  139.9663  161.1170 C.ar    1  UNL1        0.0192
      6 C         141.7470  138.9254  160.5757 C.ar    1  UNL1        0.0684
      7 C         142.0931  137.7242  161.4047 C.ar    1  UNL1        0.0192
      8 C         141.5045  137.5638  162.7750 C.ar    1  UNL1        0.0206
      9 C         140.5698  138.6047  163.3164 C.ar    1  UNL1        0.0810
     10 N         139.9812  138.4443  164.6867 N.ar    1  UNL1       -0.2483
     11 N         142.3356  139.0858  159.2054 N.ar    1  UNL1       -0.2563
     12 C         141.7640  138.3199  158.0492 C.ar    1  UNL1        0.1851
     13 N         142.3526  138.4802  156.6789 N.ar    1  UNL1       -0.2244
     14 C         143.5128  139.4065  156.4647 C.ar    1  UNL1        0.0941
     15 C         144.2965  139.7665  155.2373 C.ar    1  UNL1        0.0263
     16 C         145.3524  140.7548  155.6349 C.ar    1  UNL1        0.0312
     17 S         145.2214  141.0057  157.1080 S.2     1  UNL1       -0.0807
     18 C         144.0845  140.1724  157.6207 C.ar    1  UNL1        0.1036
     19 C         143.4959  140.0121  158.9911 C.ar    1  UNL1        0.2733
     20 O         144.0675  140.7780  160.1472 O.2     1  UNL1       -0.2660
     21 C         146.3621  141.3822  154.7201 C.ar    1  UNL1        0.0061
     22 C         146.0040  141.6695  153.2921 C.ar    1  UNL1        0.0014
     23 C         147.0136  142.2969  152.3772 C.ar    1  UNL1        0.0114
     24 C         148.3814  142.6369  152.8904 C.ar    1  UNL1        0.0577
     25 CL        149.3912  143.2643  151.9755 Cl      1  UNL1       -0.0822
     26 C         148.7396  142.3497  154.3184 C.ar    1  UNL1        0.0114
     27 C         147.7299  141.7223  155.2332 C.ar    1  UNL1        0.0014
     28 C         138.4580  139.3248  166.5984 C.3     1  UNL1        0.1187
     29 C         141.5217  141.1734  171.4145 C.3     1  UNL1        0.0897
     30 N         140.7558  140.7112  170.2105 N.3     1  UNL1       -0.2691
     31 C         139.3084  140.3394  170.3397 C.3     1  UNL1        0.0897
     32 C         138.5424  139.8772  169.1356 C.3     1  UNL1        0.0900
     33 N         139.2239  139.7869  167.8024 N.3     1  UNL1       -0.2652
     34 C         140.6714  140.1588  167.6733 C.3     1  UNL1        0.0900
     35 C         141.4373  140.6209  168.8773 C.3     1  UNL1        0.0897
@<TRIPOS>BOND
     1    29    30    1
     2    30    31    1
     3    31    32    1
     4    32    33    1
     5    33    28    1
     6    28     1    1
     7     1     2   ar
     8     2     3   ar
     9     3     4   ar
    10     4     5   ar
    11     5     6   ar
    12     6    11    1
    13    11    12   ar
    14    12    13   ar
    15    13    14   ar
    16    14    15   ar
    17    15    16   ar
    18    16    21    1
    19    21    22   ar
    20    22    23   ar
    21    23    24   ar
    22    24    25    1
    23    24    26   ar
    24    26    27   ar
    25    16    17   ar
    26    17    18   ar
    27    18    19   ar
    28    19    20    2
    29     6     7   ar
    30     7     8   ar
    31     8     9   ar
    32     9    10   ar
    33    33    34    1
    34    34    35    1
    35    35    30    1
    36    10     1   ar
    37     9     4   ar
    38    19    11   ar
    39    18    14   ar
    40    27    21   ar
