@<TRIPOS>MOLECULE
*****
 41 47 0 0 0
SMALL
GASTEIGER

@<TRIPOS>ATOM
      1 C         139.4902  139.1499  163.5376 C.3     1  UNL1        0.0955
      2 C         139.1688  138.0153  162.6105 C.3     1  UNL1        0.0287
      3 C         138.4209  138.2764  161.3367 C.3     1  UNL1        0.0193
      4 C         137.9945  139.6721  160.9900 C.3     1  UNL1        0.0700
      5 C         138.3159  140.8066  161.9171 C.3     1  UNL1        0.0193
      6 C         139.0638  140.5455  163.1908 C.3     1  UNL1        0.0287
      7 C         138.4022  139.5782  161.6992 C.3     1  UNL1        0.1562
      8 O         139.0785  139.3421  162.8510 O.3     1  UNL1       -0.3571
      9 N         137.2466  139.9332  159.7163 N.3     1  UNL1       -0.2926
     10 H         136.5638  140.6630  159.9201 H       1  UNL1        0.1236
     11 C         137.9883  140.3654  158.4862 C.3     1  UNL1        0.1152
     12 C         139.3027  139.7306  158.1410 C.ar    1  UNL1        0.0765
     13 C         140.5857  140.4078  158.5221 C.ar    1  UNL1        0.0193
     14 C         141.9002  139.7730  158.1769 C.ar    1  UNL1        0.0411
     15 C         141.9316  138.4610  157.4506 C.ar    1  UNL1        0.1708
     16 C         140.6486  137.7838  157.0693 C.ar    1  UNL1        0.1682
     17 N         139.3342  138.4186  157.4146 N.ar    1  UNL1       -0.2304
     18 N         140.6801  136.4718  156.3430 N.am    1  UNL1       -0.2639
     19 C         141.9946  135.8370  155.9978 C.2     1  UNL1        0.2718
     20 O         142.0261  134.5250  155.2714 O.2     1  UNL1       -0.2707
     21 C         143.2776  136.5142  156.3789 C.3     1  UNL1        0.2898
     22 O         143.2462  137.8262  157.1053 O.3     1  UNL1       -0.4628
     23 H         139.8380  136.0273  156.0928 H       1  UNL1        0.1565
     24 C         140.2382  138.8887  164.8114 C.3     1  UNL1        0.0604
     25 C         142.4651  142.9965  170.2819 C.3     1  UNL1        0.0328
     26 C         141.4771  142.0728  169.6332 C.ar    1  UNL1        0.0019
     27 C         140.2239  141.6846  170.3604 C.ar    1  UNL1        0.0580
     28 C         139.2360  140.7610  169.7117 C.ar    1  UNL1        0.2608
     29 O         137.9827  140.3728  170.4389 O.2     1  UNL1       -0.2670
     30 N         139.3782  140.1536  168.3401 N.ar    1  UNL1       -0.2915
     31 C         140.6681  140.6277  167.7391 C.ar    1  UNL1        0.0803
     32 C         140.7966  140.0160  166.3756 C.ar    1  UNL1        0.0500
     33 C         141.9993  140.3140  165.5302 C.ar    1  UNL1        0.1588
     34 F         142.1278  139.7024  164.1666 F       1  UNL1       -0.2027
     35 C         143.0735  141.2237  166.0484 C.ar    1  UNL1        0.1282
     36 N         142.9450  141.8354  167.4120 N.ar    1  UNL1       -0.2404
     37 C         141.7423  141.5374  168.2573 C.ar    1  UNL1        0.0932
     38 C         139.5861  139.1639  166.1339 C.3     1  UNL1        0.1335
     39 O         138.5118  138.2542  165.6157 O.3     1  UNL1       -0.3806
     40 C         138.7094  139.2489  167.3480 C.3     1  UNL1        0.1402
     41 H         138.7488  137.9477  164.7264 H       1  UNL1        0.2108
@<TRIPOS>BOND
     1    25    26    1
     2    26    27   ar
     3    27    28   ar
     4    28    29    2
     5    28    30   ar
     6    30    31   ar
     7    31    32   ar
     8    32    33   ar
     9    33    34    1
    10    33    35   ar
    11    35    36   ar
    12    36    37   ar
    13    32    38    1
    14    38    39    1
    15    38    24    1
    16    24     1    1
    17     1     2    1
    18     2     3    1
    19     3     4    1
    20     4     9    1
    21     9    11    1
    22    11    12    1
    23    12    13   ar
    24    13    14   ar
    25    14    15   ar
    26    15    16   ar
    27    16    17   ar
    28    16    18    1
    29    18    19   am
    30    19    20    2
    31    19    21    1
    32    21    22    1
    33     4     5    1
    34     5     6    1
    35     4     7    1
    36     7     8    1
    37    38    40    1
    38    37    26   ar
    39     6     1    1
    40    40    30    1
    41    37    31   ar
    42     8     1    1
    43    17    12   ar
    44    22    15    1
    45    39    41    1
    46     9    10    1
    47    18    23    1
@<TRIPOS>MOLECULE
*****
 41 47 0 0 0
SMALL
GASTEIGER

@<TRIPOS>ATOM
      1 C         141.1269  139.3875  161.9711 C.3     1  UNL1        0.0955
      2 C         141.9874  138.1592  162.0006 C.3     1  UNL1        0.0287
      3 C         142.6505  137.6776  160.7443 C.3     1  UNL1        0.0193
      4 C         142.4531  138.4243  159.4584 C.3     1  UNL1        0.0700
      5 C         141.5926  139.6526  159.4289 C.3     1  UNL1        0.0193
      6 C         140.9295  140.1342  160.6853 C.3     1  UNL1        0.0287
      7 C         142.0693  138.7265  160.1212 C.3     1  UNL1        0.1562
      8 O         141.4696  139.1620  161.2572 O.3     1  UNL1       -0.3571
      9 N         143.1162  137.9428  158.2021 N.3     1  UNL1       -0.2926
     10 H         143.7374  137.1798  158.4709 H       1  UNL1        0.1236
     11 C         142.2838  137.4415  157.0594 C.3     1  UNL1        0.1152
     12 C         142.2912  135.9830  156.7093 C.ar    1  UNL1        0.0765
     13 C         141.4227  135.4743  155.5970 C.ar    1  UNL1        0.0193
     14 C         141.4301  134.0158  155.2469 C.ar    1  UNL1        0.0411
     15 C         142.3059  133.0660  156.0089 C.ar    1  UNL1        0.1708
     16 C         143.1744  133.5746  157.1211 C.ar    1  UNL1        0.1682
     17 N         143.1670  135.0331  157.4713 N.ar    1  UNL1       -0.2304
     18 N         144.0502  132.6248  157.8831 N.am    1  UNL1       -0.2639
     19 C         144.0576  131.1663  157.5329 C.2     1  UNL1        0.2718
     20 O         144.9335  130.2164  158.2949 O.2     1  UNL1       -0.2707
     21 C         143.1892  130.6576  156.4206 C.3     1  UNL1        0.2898
     22 O         142.3133  131.6074  155.6586 O.3     1  UNL1       -0.4628
     23 H         144.6202  132.9587  158.6131 H       1  UNL1        0.1565
     24 C         140.4638  139.8690  163.2275 C.3     1  UNL1        0.0604
     25 C         139.4641  140.2219  170.3434 C.3     1  UNL1        0.0328
     26 C         140.2193  140.5580  169.0918 C.ar    1  UNL1        0.0019
     27 C         141.4490  141.4139  169.1648 C.ar    1  UNL1        0.0580
     28 C         142.2043  141.7500  167.9132 C.ar    1  UNL1        0.2608
     29 O         143.4340  142.6059  167.9862 O.2     1  UNL1       -0.2670
     30 N         141.8387  141.2957  166.5238 N.ar    1  UNL1       -0.2915
     31 C         140.5988  140.4557  166.6066 C.ar    1  UNL1        0.0803
     32 C         140.2468  140.0108  165.2181 C.ar    1  UNL1        0.0500
     33 C         139.0408  139.1486  164.9899 C.ar    1  UNL1        0.1588
     34 F         138.6887  138.7037  163.6013 F       1  UNL1       -0.2027
     35 C         138.1868  138.7312  166.1503 C.ar    1  UNL1        0.1282
     36 N         138.5389  139.1761  167.5389 N.ar    1  UNL1       -0.2404
     37 C         139.7449  140.0383  167.7670 C.ar    1  UNL1        0.0932
     38 C         141.2691  140.5759  164.2771 C.3     1  UNL1        0.1335
     39 O         142.1231  140.9933  163.1167 O.3     1  UNL1       -0.3806
     40 C         142.2530  141.3701  165.0841 C.3     1  UNL1        0.1402
     41 H         141.7588  140.6231  162.2974 H       1  UNL1        0.2108
@<TRIPOS>BOND
     1    25    26    1
     2    26    27   ar
     3    27    28   ar
     4    28    29    2
     5    28    30   ar
     6    30    31   ar
     7    31    32   ar
     8    32    33   ar
     9    33    34    1
    10    33    35   ar
    11    35    36   ar
    12    36    37   ar
    13    32    38    1
    14    38    39    1
    15    38    24    1
    16    24     1    1
    17     1     2    1
    18     2     3    1
    19     3     4    1
    20     4     9    1
    21     9    11    1
    22    11    12    1
    23    12    13   ar
    24    13    14   ar
    25    14    15   ar
    26    15    16   ar
    27    16    17   ar
    28    16    18    1
    29    18    19   am
    30    19    20    2
    31    19    21    1
    32    21    22    1
    33     4     5    1
    34     5     6    1
    35     4     7    1
    36     7     8    1
    37    38    40    1
    38    37    26   ar
    39     6     1    1
    40    40    30    1
    41    37    31   ar
    42     8     1    1
    43    17    12   ar
    44    22    15    1
    45    39    41    1
    46     9    10    1
    47    18    23    1
@<TRIPOS>MOLECULE
*****
 41 47 0 0 0
SMALL
GASTEIGER

@<TRIPOS>ATOM
      1 C         144.0523  142.0823  159.9055 C.3     1  UNL1        0.0955
      2 C         144.7856  142.5037  158.6666 C.3     1  UNL1        0.0287
      3 C         144.8895  141.5655  157.5008 C.3     1  UNL1        0.0193
      4 C         144.2601  140.2060  157.5739 C.3     1  UNL1        0.0700
      5 C         143.5267  139.7845  158.8127 C.3     1  UNL1        0.0193
      6 C         143.4228  140.7227  159.9785 C.3     1  UNL1        0.0287
      7 C         144.1767  140.6854  158.2381 C.3     1  UNL1        0.1562
      8 O         144.0827  141.5337  159.2923 O.3     1  UNL1       -0.3571
      9 N         144.3639  139.2678  156.4082 N.3     1  UNL1       -0.2926
     10 H         144.8895  138.4551  156.7302 H       1  UNL1        0.1236
     11 C         143.1199  138.7466  155.7517 C.3     1  UNL1        0.1152
     12 C         142.7899  137.2852  155.8235 C.ar    1  UNL1        0.0765
     13 C         141.4962  136.7798  155.2570 C.ar    1  UNL1        0.0193
     14 C         141.1661  135.3183  155.3288 C.ar    1  UNL1        0.0411
     15 C         142.1296  134.3623  155.9671 C.ar    1  UNL1        0.1708
     16 C         143.4234  134.8676  156.5337 C.ar    1  UNL1        0.1682
     17 N         143.7534  136.3291  156.4619 N.ar    1  UNL1       -0.2304
     18 N         144.3869  133.9116  157.1720 N.am    1  UNL1       -0.2639
     19 C         144.0568  132.4502  157.2439 C.2     1  UNL1        0.2718
     20 O         145.0203  131.4940  157.8822 O.2     1  UNL1       -0.2707
     21 C         142.7631  131.9447  156.6773 C.3     1  UNL1        0.2898
     22 O         141.7995  132.9008  156.0389 O.3     1  UNL1       -0.4628
     23 H         145.2360  134.2433  157.5439 H       1  UNL1        0.1565
     24 C         143.9484  143.0205  161.0713 C.3     1  UNL1        0.0604
     25 C         140.7488  142.4925  167.4934 C.3     1  UNL1        0.0328
     26 C         140.7815  142.9332  166.0600 C.ar    1  UNL1        0.0019
     27 C         139.6142  143.6722  165.4758 C.ar    1  UNL1        0.0580
     28 C         139.6469  144.1129  164.0424 C.ar    1  UNL1        0.2608
     29 O         138.4796  144.8520  163.4581 O.2     1  UNL1       -0.2670
     30 N         140.7846  143.8794  163.0824 N.ar    1  UNL1       -0.2915
     31 C         141.8711  143.1358  163.8012 C.ar    1  UNL1        0.0803
     32 C         142.9960  142.9104  162.8349 C.ar    1  UNL1        0.0500
     33 C         144.2313  142.1841  163.2782 C.ar    1  UNL1        0.1588
     34 F         145.3562  141.9586  162.3119 F       1  UNL1       -0.2027
     35 C         144.3417  141.6832  164.6877 C.ar    1  UNL1        0.1282
     36 N         143.2168  141.9086  165.6540 N.ar    1  UNL1       -0.2404
     37 C         141.9815  142.6350  165.2108 C.ar    1  UNL1        0.0932
     38 C         142.6047  143.5146  161.5189 C.3     1  UNL1        0.1335
     39 O         142.4943  144.0156  160.1093 O.3     1  UNL1       -0.3806
     40 C         141.2380  144.1135  161.6719 C.3     1  UNL1        0.1402
     41 H         143.3013  143.7885  159.6214 H       1  UNL1        0.2108
@<TRIPOS>BOND
     1    25    26    1
     2    26    27   ar
     3    27    28   ar
     4    28    29    2
     5    28    30   ar
     6    30    31   ar
     7    31    32   ar
     8    32    33   ar
     9    33    34    1
    10    33    35   ar
    11    35    36   ar
    12    36    37   ar
    13    32    38    1
    14    38    39    1
    15    38    24    1
    16    24     1    1
    17     1     2    1
    18     2     3    1
    19     3     4    1
    20     4     9    1
    21     9    11    1
    22    11    12    1
    23    12    13   ar
    24    13    14   ar
    25    14    15   ar
    26    15    16   ar
    27    16    17   ar
    28    16    18    1
    29    18    19   am
    30    19    20    2
    31    19    21    1
    32    21    22    1
    33     4     5    1
    34     5     6    1
    35     4     7    1
    36     7     8    1
    37    38    40    1
    38    37    26   ar
    39     6     1    1
    40    40    30    1
    41    37    31   ar
    42     8     1    1
    43    17    12   ar
    44    22    15    1
    45    39    41    1
    46     9    10    1
    47    18    23    1
@<TRIPOS>MOLECULE
*****
 41 47 0 0 0
SMALL
GASTEIGER

@<TRIPOS>ATOM
      1 C         141.2585  138.3977  158.5518 C.3     1  UNL1        0.0955
      2 C         140.1809  138.3906  157.5083 C.3     1  UNL1        0.0287
      3 C         140.3404  137.5575  156.2711 C.3     1  UNL1        0.0193
      4 C         141.5774  136.7317  156.0774 C.3     1  UNL1        0.0700
      5 C         142.6550  136.7388  157.1209 C.3     1  UNL1        0.0193
      6 C         142.4955  137.5718  158.3581 C.3     1  UNL1        0.0287
      7 C         141.5350  137.1722  156.7718 C.3     1  UNL1        0.1562
      8 O         141.3908  137.9254  157.8905 O.3     1  UNL1       -0.3571
      9 N         141.7370  135.8987  154.8403 N.3     1  UNL1       -0.2926
     10 H         142.7386  135.7608  154.7053 H       1  UNL1        0.1236
     11 C         141.0989  134.5434  154.7612 C.3     1  UNL1        0.1152
     12 C         141.9358  133.3095  154.9254 C.ar    1  UNL1        0.0765
     13 C         142.5630  132.6636  153.7256 C.ar    1  UNL1        0.0193
     14 C         143.3999  131.4297  153.8898 C.ar    1  UNL1        0.0411
     15 C         143.6097  130.8418  155.2537 C.ar    1  UNL1        0.1708
     16 C         142.9826  131.4877  156.4535 C.ar    1  UNL1        0.1682
     17 N         142.1456  132.7216  156.2893 N.ar    1  UNL1       -0.2304
     18 N         143.1924  130.8998  157.8174 N.am    1  UNL1       -0.2639
     19 C         144.0293  129.6659  157.9816 C.2     1  UNL1        0.2718
     20 O         144.2392  129.0779  159.3455 O.2     1  UNL1       -0.2707
     21 C         144.6565  129.0198  156.7818 C.3     1  UNL1        0.2898
     22 O         144.4467  129.6078  155.4179 O.3     1  UNL1       -0.4628
     23 H         142.7807  131.3238  158.6048 H       1  UNL1        0.1565
     24 C         141.0989  139.2308  159.7890 C.3     1  UNL1        0.0604
     25 C         143.8085  138.3012  166.3885 C.3     1  UNL1        0.0328
     26 C         143.8197  138.9292  165.0264 C.ar    1  UNL1        0.0019
     27 C         144.8916  139.9137  164.6633 C.ar    1  UNL1        0.0580
     28 C         144.9028  140.5417  163.3011 C.ar    1  UNL1        0.2608
     29 O         145.9747  141.5263  162.9380 O.2     1  UNL1       -0.2670
     30 N         143.9017  140.2737  162.2074 N.ar    1  UNL1       -0.2915
     31 C         142.8990  139.2782  162.7110 C.ar    1  UNL1        0.0803
     32 C         141.9096  139.0210  161.6134 C.ar    1  UNL1        0.0500
     33 C         140.7803  138.0582  161.8320 C.ar    1  UNL1        0.1588
     34 F         139.7909  137.8010  160.7343 F       1  UNL1       -0.2027
     35 C         140.6404  137.3528  163.1483 C.ar    1  UNL1        0.1282
     36 N         141.6298  137.6100  164.2459 N.ar    1  UNL1       -0.2404
     37 C         142.7591  138.5727  164.0273 C.ar    1  UNL1        0.0932
     38 C         142.3008  139.8575  160.4313 C.3     1  UNL1        0.1335
     39 O         142.4408  140.5631  159.1150 O.3     1  UNL1       -0.3806
     40 C         143.5320  140.6318  160.7985 C.3     1  UNL1        0.1402
     41 H         141.7251  140.2857  158.5218 H       1  UNL1        0.2108
@<TRIPOS>BOND
     1    25    26    1
     2    26    27   ar
     3    27    28   ar
     4    28    29    2
     5    28    30   ar
     6    30    31   ar
     7    31    32   ar
     8    32    33   ar
     9    33    34    1
    10    33    35   ar
    11    35    36   ar
    12    36    37   ar
    13    32    38    1
    14    38    39    1
    15    38    24    1
    16    24     1    1
    17     1     2    1
    18     2     3    1
    19     3     4    1
    20     4     9    1
    21     9    11    1
    22    11    12    1
    23    12    13   ar
    24    13    14   ar
    25    14    15   ar
    26    15    16   ar
    27    16    17   ar
    28    16    18    1
    29    18    19   am
    30    19    20    2
    31    19    21    1
    32    21    22    1
    33     4     5    1
    34     5     6    1
    35     4     7    1
    36     7     8    1
    37    38    40    1
    38    37    26   ar
    39     6     1    1
    40    40    30    1
    41    37    31   ar
    42     8     1    1
    43    17    12   ar
    44    22    15    1
    45    39    41    1
    46     9    10    1
    47    18    23    1
@<TRIPOS>MOLECULE
*****
 41 47 0 0 0
SMALL
GASTEIGER

@<TRIPOS>ATOM
      1 C         140.4441  138.7261  160.8957 C.3     1  UNL1        0.0955
      2 C         141.6949  139.4998  160.6012 C.3     1  UNL1        0.0287
      3 C         142.1303  139.7094  159.1811 C.3     1  UNL1        0.0193
      4 C         141.3148  139.1452  158.0557 C.3     1  UNL1        0.0700
      5 C         140.0640  138.3715  158.3502 C.3     1  UNL1        0.0193
      6 C         139.6286  138.1619  159.7703 C.3     1  UNL1        0.0287
      7 C         141.0361  139.0044  158.8175 C.3     1  UNL1        0.1562
      8 O         140.6424  138.8149  160.1016 O.3     1  UNL1       -0.3571
      9 N         141.7501  139.3548  156.6357 N.3     1  UNL1       -0.2926
     10 H         142.0932  140.3132  156.5712 H       1  UNL1        0.1236
     11 C         142.8079  138.4751  156.0379 C.3     1  UNL1        0.1152
     12 C         142.6231  136.9867  156.0190 C.ar    1  UNL1        0.0765
     13 C         141.4529  136.3852  155.2988 C.ar    1  UNL1        0.0193
     14 C         141.2682  134.8968  155.2799 C.ar    1  UNL1        0.0411
     15 C         142.2536  134.0098  155.9814 C.ar    1  UNL1        0.1708
     16 C         143.4239  134.6112  156.7017 C.ar    1  UNL1        0.1682
     17 N         143.6086  136.0996  156.7205 N.ar    1  UNL1       -0.2304
     18 N         144.4093  133.7242  157.4032 N.am    1  UNL1       -0.2639
     19 C         144.2246  132.2358  157.3844 C.2     1  UNL1        0.2718
     20 O         145.2100  131.3487  158.0859 O.2     1  UNL1       -0.2707
     21 C         143.0543  131.6343  156.6641 C.3     1  UNL1        0.2898
     22 O         142.0688  132.5213  155.9626 O.3     1  UNL1       -0.4628
     23 H         145.1773  134.1190  157.8760 H       1  UNL1        0.1565
     24 C         140.0087  138.5165  162.3159 C.3     1  UNL1        0.0604
     25 C         141.1625  141.9473  168.5334 C.3     1  UNL1        0.0328
     26 C         141.4772  140.8770  167.5308 C.ar    1  UNL1        0.0019
     27 C         142.5969  139.9130  167.7894 C.ar    1  UNL1        0.0580
     28 C         142.9117  138.8426  166.7868 C.ar    1  UNL1        0.2608
     29 O         144.0315  137.8786  167.0454 O.2     1  UNL1       -0.2670
     30 N         142.1854  138.6246  165.4848 N.ar    1  UNL1       -0.2915
     31 C         141.1014  139.6543  165.3642 C.ar    1  UNL1        0.0803
     32 C         140.3874  139.4258  164.0650 C.ar    1  UNL1        0.0500
     33 C         139.2442  140.3134  163.6711 C.ar    1  UNL1        0.1588
     34 F         138.5303  140.0849  162.3719 F       1  UNL1       -0.2027
     35 C         138.8151  141.4297  164.5765 C.ar    1  UNL1        0.1282
     36 N         139.5291  141.6582  165.8757 N.ar    1  UNL1       -0.2404
     37 C         140.6722  140.7706  166.2696 C.ar    1  UNL1        0.0932
     38 C         141.0302  138.2548  163.3826 C.3     1  UNL1        0.1335
     39 O         141.4594  137.1385  162.4772 O.3     1  UNL1       -0.3806
     40 C         142.1414  137.7596  164.2601 C.3     1  UNL1        0.1402
     41 H         140.8982  137.1298  161.6861 H       1  UNL1        0.2108
@<TRIPOS>BOND
     1    25    26    1
     2    26    27   ar
     3    27    28   ar
     4    28    29    2
     5    28    30   ar
     6    30    31   ar
     7    31    32   ar
     8    32    33   ar
     9    33    34    1
    10    33    35   ar
    11    35    36   ar
    12    36    37   ar
    13    32    38    1
    14    38    39    1
    15    38    24    1
    16    24     1    1
    17     1     2    1
    18     2     3    1
    19     3     4    1
    20     4     9    1
    21     9    11    1
    22    11    12    1
    23    12    13   ar
    24    13    14   ar
    25    14    15   ar
    26    15    16   ar
    27    16    17   ar
    28    16    18    1
    29    18    19   am
    30    19    20    2
    31    19    21    1
    32    21    22    1
    33     4     5    1
    34     5     6    1
    35     4     7    1
    36     7     8    1
    37    38    40    1
    38    37    26   ar
    39     6     1    1
    40    40    30    1
    41    37    31   ar
    42     8     1    1
    43    17    12   ar
    44    22    15    1
    45    39    41    1
    46     9    10    1
    47    18    23    1
@<TRIPOS>MOLECULE
*****
 41 47 0 0 0
SMALL
GASTEIGER

@<TRIPOS>ATOM
      1 C         141.3505  139.9684  161.1878 C.3     1  UNL1        0.0955
      2 C         142.2199  138.7768  161.4603 C.3     1  UNL1        0.0287
      3 C         142.8154  138.0061  160.3195 C.3     1  UNL1        0.0193
      4 C         142.5414  138.4271  158.9061 C.3     1  UNL1        0.0700
      5 C         141.6720  139.6187  158.6335 C.3     1  UNL1        0.0193
      6 C         141.0766  140.3893  159.7744 C.3     1  UNL1        0.0287
      7 C         142.1930  138.8806  159.4984 C.3     1  UNL1        0.1562
      8 O         141.6545  139.5775  160.5300 O.3     1  UNL1       -0.3571
      9 N         143.1368  137.6565  157.7653 N.3     1  UNL1       -0.2926
     10 H         143.6631  136.8844  158.1743 H       1  UNL1        0.1236
     11 C         142.2456  137.0642  156.7141 C.3     1  UNL1        0.1152
     12 C         142.2560  135.5844  156.4687 C.ar    1  UNL1        0.0765
     13 C         141.3709  134.9933  155.4118 C.ar    1  UNL1        0.0193
     14 C         141.3813  133.5135  155.1664 C.ar    1  UNL1        0.0411
     15 C         142.2768  132.6250  155.9778 C.ar    1  UNL1        0.1708
     16 C         143.1621  133.2161  157.0347 C.ar    1  UNL1        0.1682
     17 N         143.1516  134.6959  157.2801 N.ar    1  UNL1       -0.2304
     18 N         144.0576  132.3276  157.8461 N.am    1  UNL1       -0.2639
     19 C         144.0680  130.8479  157.6006 C.2     1  UNL1        0.2718
     20 O         144.9636  129.9592  158.4120 O.2     1  UNL1       -0.2707
     21 C         143.1828  130.2566  156.5437 C.3     1  UNL1        0.2898
     22 O         142.2872  131.1452  155.7323 O.3     1  UNL1       -0.4628
     23 H         144.6386  132.7156  158.5397 H       1  UNL1        0.1565
     24 C         140.7551  140.7391  162.3287 C.3     1  UNL1        0.0604
     25 C         140.5274  141.2117  169.5040 C.3     1  UNL1        0.0328
     26 C         140.0389  140.6674  168.1943 C.ar    1  UNL1        0.0019
     27 C         138.9055  139.6852  168.1663 C.ar    1  UNL1        0.0580
     28 C         138.4171  139.1409  166.8567 C.ar    1  UNL1        0.2608
     29 O         137.2836  138.1587  166.8286 O.2     1  UNL1       -0.2670
     30 N         138.9730  139.4950  165.5017 N.ar    1  UNL1       -0.2915
     31 C         140.0907  140.4781  165.6860 C.ar    1  UNL1        0.0803
     32 C         140.6342  140.8214  164.3307 C.ar    1  UNL1        0.0500
     33 C         141.7709  141.7917  164.2022 C.ar    1  UNL1        0.1588
     34 F         142.3144  142.1350  162.8469 F       1  UNL1       -0.2027
     35 C         142.3640  142.4187  165.4290 C.ar    1  UNL1        0.1282
     36 N         141.8205  142.0755  166.7842 N.ar    1  UNL1       -0.2404
     37 C         140.6839  141.1052  166.9128 C.ar    1  UNL1        0.0932
     38 C         139.8524  140.0504  163.3089 C.3     1  UNL1        0.1335
     39 O         139.2592  139.4233  162.0821 O.3     1  UNL1       -0.3806
     40 C         138.8256  139.2306  164.0326 C.3     1  UNL1        0.1402
     41 H         139.7227  139.7505  161.2953 H       1  UNL1        0.2108
@<TRIPOS>BOND
     1    25    26    1
     2    26    27   ar
     3    27    28   ar
     4    28    29    2
     5    28    30   ar
     6    30    31   ar
     7    31    32   ar
     8    32    33   ar
     9    33    34    1
    10    33    35   ar
    11    35    36   ar
    12    36    37   ar
    13    32    38    1
    14    38    39    1
    15    38    24    1
    16    24     1    1
    17     1     2    1
    18     2     3    1
    19     3     4    1
    20     4     9    1
    21     9    11    1
    22    11    12    1
    23    12    13   ar
    24    13    14   ar
    25    14    15   ar
    26    15    16   ar
    27    16    17   ar
    28    16    18    1
    29    18    19   am
    30    19    20    2
    31    19    21    1
    32    21    22    1
    33     4     5    1
    34     5     6    1
    35     4     7    1
    36     7     8    1
    37    38    40    1
    38    37    26   ar
    39     6     1    1
    40    40    30    1
    41    37    31   ar
    42     8     1    1
    43    17    12   ar
    44    22    15    1
    45    39    41    1
    46     9    10    1
    47    18    23    1
@<TRIPOS>MOLECULE
*****
 41 47 0 0 0
SMALL
GASTEIGER

@<TRIPOS>ATOM
      1 C         141.4442  144.6957  161.3765 C.3     1  UNL1        0.0955
      2 C         141.1659  145.3353  162.7044 C.3     1  UNL1        0.0287
      3 C         142.1367  145.1683  163.8356 C.3     1  UNL1        0.0193
      4 C         143.3859  144.3616  163.6388 C.3     1  UNL1        0.0700
      5 C         143.6643  143.7219  162.3109 C.3     1  UNL1        0.0193
      6 C         142.6934  143.8890  161.1797 C.3     1  UNL1        0.0287
      7 C         142.8837  144.4250  162.9894 C.3     1  UNL1        0.1562
      8 O         142.0058  144.5760  161.9665 O.3     1  UNL1       -0.3571
      9 N         144.3567  144.1945  164.7699 N.3     1  UNL1       -0.2926
     10 H         144.1254  144.9053  165.4639 H       1  UNL1        0.1236
     11 C         144.4396  142.8870  165.5003 C.3     1  UNL1        0.1152
     12 C         143.2515  142.3754  166.2597 C.ar    1  UNL1        0.0765
     13 C         142.1920  141.5849  165.5509 C.ar    1  UNL1        0.0193
     14 C         141.0039  141.0733  166.3103 C.ar    1  UNL1        0.0411
     15 C         140.8754  141.3522  167.7785 C.ar    1  UNL1        0.1708
     16 C         141.9350  142.1427  168.4874 C.ar    1  UNL1        0.1682
     17 N         143.1230  142.6543  167.7280 N.ar    1  UNL1       -0.2304
     18 N         141.8065  142.4216  169.9555 N.am    1  UNL1       -0.2639
     19 C         140.6184  141.9100  170.7150 C.2     1  UNL1        0.2718
     20 O         140.4898  142.1888  172.1832 O.2     1  UNL1       -0.2707
     21 C         139.5588  141.1194  170.0062 C.3     1  UNL1        0.2898
     22 O         139.6873  140.8405  168.5379 O.3     1  UNL1       -0.4628
     23 H         142.5019  142.9404  170.4208 H       1  UNL1        0.1565
     24 C         140.4733  144.8627  160.2452 C.3     1  UNL1        0.0604
     25 C         138.8111  142.5248  153.6475 C.3     1  UNL1        0.0328
     26 C         138.7266  142.4461  155.1430 C.ar    1  UNL1        0.0019
     27 C         137.9031  141.3736  155.7923 C.ar    1  UNL1        0.0580
     28 C         137.8187  141.2949  157.2878 C.ar    1  UNL1        0.2608
     29 O         136.9952  140.2223  157.9372 O.2     1  UNL1       -0.2670
     30 N         138.5079  142.2255  158.2518 N.ar    1  UNL1       -0.2915
     31 C         139.2874  143.2369  157.4648 C.ar    1  UNL1        0.0803
     32 C         139.9676  144.1558  158.4359 C.ar    1  UNL1        0.0500
     33 C         140.8261  145.2776  157.9315 C.ar    1  UNL1        0.1588
     34 F         141.5063  146.1965  158.9026 F       1  UNL1       -0.2027
     35 C         141.0044  145.4806  156.4561 C.ar    1  UNL1        0.1282
     36 N         140.3242  144.5617  155.4850 N.ar    1  UNL1       -0.2404
     37 C         139.4657  143.4399  155.9893 C.ar    1  UNL1        0.0932
     38 C         139.6085  143.7122  159.8230 C.3     1  UNL1        0.1335
     39 O         139.4301  143.5092  161.2986 O.3     1  UNL1       -0.3806
     40 C         138.7063  142.5192  159.7093 C.3     1  UNL1        0.1402
     41 H         139.9333  144.1838  161.7809 H       1  UNL1        0.2108
@<TRIPOS>BOND
     1    25    26    1
     2    26    27   ar
     3    27    28   ar
     4    28    29    2
     5    28    30   ar
     6    30    31   ar
     7    31    32   ar
     8    32    33   ar
     9    33    34    1
    10    33    35   ar
    11    35    36   ar
    12    36    37   ar
    13    32    38    1
    14    38    39    1
    15    38    24    1
    16    24     1    1
    17     1     2    1
    18     2     3    1
    19     3     4    1
    20     4     9    1
    21     9    11    1
    22    11    12    1
    23    12    13   ar
    24    13    14   ar
    25    14    15   ar
    26    15    16   ar
    27    16    17   ar
    28    16    18    1
    29    18    19   am
    30    19    20    2
    31    19    21    1
    32    21    22    1
    33     4     5    1
    34     5     6    1
    35     4     7    1
    36     7     8    1
    37    38    40    1
    38    37    26   ar
    39     6     1    1
    40    40    30    1
    41    37    31   ar
    42     8     1    1
    43    17    12   ar
    44    22    15    1
    45    39    41    1
    46     9    10    1
    47    18    23    1
@<TRIPOS>MOLECULE
*****
 41 47 0 0 0
SMALL
GASTEIGER

@<TRIPOS>ATOM
      1 C         140.7376  144.6608  160.2377 C.3     1  UNL1        0.0955
      2 C         141.2265  145.4903  159.0876 C.3     1  UNL1        0.0287
      3 C         140.7431  145.2034  157.6969 C.3     1  UNL1        0.0193
      4 C         139.7706  144.0870  157.4564 C.3     1  UNL1        0.0700
      5 C         139.2817  143.2574  158.6066 C.3     1  UNL1        0.0193
      6 C         139.7652  143.5443  159.9972 C.3     1  UNL1        0.0287
      7 C         140.0071  144.2064  158.2360 C.3     1  UNL1        0.1562
      8 O         140.4443  144.4658  159.4935 O.3     1  UNL1       -0.3571
      9 N         139.2871  143.8000  156.0659 N.3     1  UNL1       -0.2926
     10 H         138.7309  142.9466  156.1178 H       1  UNL1        0.1236
     11 C         138.4570  144.8142  155.3362 C.3     1  UNL1        0.1152
     12 C         139.0570  146.1314  154.9425 C.ar    1  UNL1        0.0765
     13 C         140.1002  146.1886  153.8663 C.ar    1  UNL1        0.0193
     14 C         140.7002  147.5058  153.4726 C.ar    1  UNL1        0.0411
     15 C         140.2568  148.7658  154.1550 C.ar    1  UNL1        0.1708
     16 C         139.2135  148.7087  155.2313 C.ar    1  UNL1        0.1682
     17 N         138.6136  147.3914  155.6250 N.ar    1  UNL1       -0.2304
     18 N         138.7702  149.9686  155.9137 N.am    1  UNL1       -0.2639
     19 C         139.3701  151.2858  155.5200 C.2     1  UNL1        0.2718
     20 O         138.9268  152.5459  156.2025 O.2     1  UNL1       -0.2707
     21 C         140.4135  151.3430  154.4438 C.3     1  UNL1        0.2898
     22 O         140.8568  150.0830  153.7612 O.3     1  UNL1       -0.4628
     23 H         138.0854  149.9310  156.6201 H       1  UNL1        0.1565
     24 C         141.2211  144.9477  161.6284 C.3     1  UNL1        0.0604
     25 C         140.5093  141.9747  168.1410 C.3     1  UNL1        0.0328
     26 C         141.2336  142.1636  166.8411 C.ar    1  UNL1        0.0019
     27 C         142.5084  141.4183  166.5777 C.ar    1  UNL1        0.0580
     28 C         143.2327  141.6073  165.2778 C.ar    1  UNL1        0.2608
     29 O         144.5076  140.8620  165.0143 O.2     1  UNL1       -0.2670
     30 N         142.7919  142.5110  164.1556 N.ar    1  UNL1       -0.2915
     31 C         141.5136  143.1844  164.5586 C.ar    1  UNL1        0.0803
     32 C         141.0868  144.0800  163.4335 C.ar    1  UNL1        0.0500
     33 C         139.8295  144.8890  163.5545 C.ar    1  UNL1        0.1588
     34 F         139.4027  145.7845  162.4294 F       1  UNL1       -0.2027
     35 C         138.9990  144.8024  164.8006 C.ar    1  UNL1        0.1282
     36 N         139.4258  143.9069  165.9257 N.ar    1  UNL1       -0.2404
     37 C         140.6831  143.0979  165.8047 C.ar    1  UNL1        0.0932
     38 C         142.1013  143.9600  162.3352 C.3     1  UNL1        0.1335
     39 O         142.9319  144.0465  161.0891 O.3     1  UNL1       -0.3806
     40 C         143.1552  142.9903  162.7814 C.3     1  UNL1        0.1402
     41 H         142.5181  144.6652  160.4670 H       1  UNL1        0.2108
@<TRIPOS>BOND
     1    25    26    1
     2    26    27   ar
     3    27    28   ar
     4    28    29    2
     5    28    30   ar
     6    30    31   ar
     7    31    32   ar
     8    32    33   ar
     9    33    34    1
    10    33    35   ar
    11    35    36   ar
    12    36    37   ar
    13    32    38    1
    14    38    39    1
    15    38    24    1
    16    24     1    1
    17     1     2    1
    18     2     3    1
    19     3     4    1
    20     4     9    1
    21     9    11    1
    22    11    12    1
    23    12    13   ar
    24    13    14   ar
    25    14    15   ar
    26    15    16   ar
    27    16    17   ar
    28    16    18    1
    29    18    19   am
    30    19    20    2
    31    19    21    1
    32    21    22    1
    33     4     5    1
    34     5     6    1
    35     4     7    1
    36     7     8    1
    37    38    40    1
    38    37    26   ar
    39     6     1    1
    40    40    30    1
    41    37    31   ar
    42     8     1    1
    43    17    12   ar
    44    22    15    1
    45    39    41    1
    46     9    10    1
    47    18    23    1
@<TRIPOS>MOLECULE
*****
 41 47 0 0 0
SMALL
GASTEIGER

@<TRIPOS>ATOM
      1 C         140.6206  138.7476  160.2009 C.3     1  UNL1        0.0955
      2 C         140.2096  138.8405  158.7612 C.3     1  UNL1        0.0287
      3 C         141.1205  138.3255  157.6865 C.3     1  UNL1        0.0193
      4 C         142.4424  137.7177  158.0514 C.3     1  UNL1        0.0700
      5 C         142.8533  137.6248  159.4910 C.3     1  UNL1        0.0193
      6 C         141.9424  138.1397  160.5658 C.3     1  UNL1        0.0287
      7 C         141.9770  137.9862  158.6753 C.3     1  UNL1        0.1562
      8 O         141.1533  138.4519  159.6471 O.3     1  UNL1       -0.3571
      9 N         143.3533  137.2027  156.9767 N.3     1  UNL1       -0.2926
     10 H         144.0416  136.6057  157.4353 H       1  UNL1        0.1236
     11 C         142.7911  136.4144  155.8311 C.3     1  UNL1        0.1152
     12 C         142.6959  134.9203  155.9238 C.ar    1  UNL1        0.0765
     13 C         141.6915  134.1797  155.0915 C.ar    1  UNL1        0.0193
     14 C         141.5963  132.6856  155.1842 C.ar    1  UNL1        0.0411
     15 C         142.5054  131.9321  156.1092 C.ar    1  UNL1        0.1708
     16 C         143.5099  132.6727  156.9416 C.ar    1  UNL1        0.1682
     17 N         143.6050  134.1668  156.8489 N.ar    1  UNL1       -0.2304
     18 N         144.4190  131.9192  157.8666 N.am    1  UNL1       -0.2639
     19 C         144.3238  130.4251  157.9593 C.2     1  UNL1        0.2718
     20 O         145.2329  129.6715  158.8843 O.2     1  UNL1       -0.2707
     21 C         143.3194  129.6844  157.1269 C.3     1  UNL1        0.2898
     22 O         142.4102  130.4380  156.2019 O.3     1  UNL1       -0.4628
     23 H         145.0781  132.4053  158.4129 H       1  UNL1        0.1565
     24 C         139.7096  139.2626  161.2756 C.3     1  UNL1        0.0604
     25 C         139.5915  140.3061  168.3930 C.3     1  UNL1        0.0328
     26 C         139.8612  140.7624  166.9898 C.ar    1  UNL1        0.0019
     27 C         140.3926  142.1426  166.7390 C.ar    1  UNL1        0.0580
     28 C         140.6622  142.5989  165.3358 C.ar    1  UNL1        0.2608
     29 O         141.1936  143.9791  165.0850 O.2     1  UNL1       -0.2670
     30 N         140.4444  141.7759  164.0926 N.ar    1  UNL1       -0.2915
     31 C         139.9155  140.4316  164.4962 C.ar    1  UNL1        0.0803
     32 C         139.7035  139.6237  163.2502 C.ar    1  UNL1        0.0500
     33 C         139.1755  138.2229  163.3454 C.ar    1  UNL1        0.1588
     34 F         138.9635  137.4151  162.0994 F       1  UNL1       -0.2027
     35 C         138.8595  137.6301  164.6865 C.ar    1  UNL1        0.1282
     36 N         139.0714  138.4379  165.9324 N.ar    1  UNL1       -0.2404
     37 C         139.5994  139.8387  165.8373 C.ar    1  UNL1        0.0932
     38 C         140.1014  140.4688  162.0766 C.3     1  UNL1        0.1335
     39 O         140.4175  141.0617  160.7354 O.3     1  UNL1       -0.3806
     40 C         140.5594  141.7989  162.5972 C.3     1  UNL1        0.1402
     41 H         140.2252  140.4121  160.0413 H       1  UNL1        0.2108
@<TRIPOS>BOND
     1    25    26    1
     2    26    27   ar
     3    27    28   ar
     4    28    29    2
     5    28    30   ar
     6    30    31   ar
     7    31    32   ar
     8    32    33   ar
     9    33    34    1
    10    33    35   ar
    11    35    36   ar
    12    36    37   ar
    13    32    38    1
    14    38    39    1
    15    38    24    1
    16    24     1    1
    17     1     2    1
    18     2     3    1
    19     3     4    1
    20     4     9    1
    21     9    11    1
    22    11    12    1
    23    12    13   ar
    24    13    14   ar
    25    14    15   ar
    26    15    16   ar
    27    16    17   ar
    28    16    18    1
    29    18    19   am
    30    19    20    2
    31    19    21    1
    32    21    22    1
    33     4     5    1
    34     5     6    1
    35     4     7    1
    36     7     8    1
    37    38    40    1
    38    37    26   ar
    39     6     1    1
    40    40    30    1
    41    37    31   ar
    42     8     1    1
    43    17    12   ar
    44    22    15    1
    45    39    41    1
    46     9    10    1
    47    18    23    1
