@<TRIPOS>MOLECULE
*****
 30 32 0 0 0
SMALL
GASTEIGER

@<TRIPOS>ATOM
      1 O         141.8946  138.1568  162.5161 O.3     1  UNL1       -0.3470
      2 C         142.7570  138.5896  163.6645 C.3     1  UNL1        0.1874
      3 C         141.4180  141.9846  165.2238 C.ar    1  UNL1        0.0583
      4 C         141.1975  141.5741  166.6496 C.ar    1  UNL1        0.0186
      5 C         141.4968  140.1688  167.0804 C.ar    1  UNL1        0.0738
      6 C         142.0166  139.1740  166.0854 C.ar    1  UNL1        0.0211
      7 C         142.2371  139.5845  164.6596 C.ar    1  UNL1        0.0883
      8 N         141.9378  140.9898  164.2288 N.ar    1  UNL1       -0.2515
      9 C         141.2763  139.7584  168.5062 C.3     1  UNL1        0.4187
     10 F         141.0558  139.3480  169.9320 F       1  UNL1       -0.1659
     11 F         142.5788  139.0146  168.4935 F       1  UNL1       -0.1659
     12 F         139.9738  140.5022  168.5189 F       1  UNL1       -0.1659
     13 C         142.1727  144.2032  164.1021 C.3     1  UNL1        0.0063
     14 C         141.1186  143.3899  164.7930 C.3     1  UNL1        0.0403
     15 C         139.7652  143.9819  165.0532 C.3     1  UNL1        0.0063
     16 C         140.4437  137.8499  162.7417 C.3     1  UNL1        0.1467
     17 C         139.3885  138.7215  162.1277 C.3     1  UNL1        0.0489
     18 C         140.1982  138.3944  160.9082 C.3     1  UNL1        0.0238
     19 C         139.7989  138.9473  159.5723 C.3     1  UNL1        0.0725
     20 N         138.5897  139.8273  159.4559 N.3     1  UNL1       -0.2715
     21 C         138.1903  140.3802  158.1199 C.3     1  UNL1        0.0896
     22 C         137.7800  140.1544  160.6754 C.3     1  UNL1        0.0725
     23 C         138.1793  139.6015  162.0113 C.3     1  UNL1        0.0238
     24 C         138.9452  138.7459  163.5606 C.ar    1  UNL1       -0.0202
     25 C         138.9538  137.4830  164.3699 C.ar    1  UNL1       -0.0019
     26 C         138.5105  137.5074  165.8027 C.ar    1  UNL1        0.0293
     27 C         138.0586  138.7947  166.4261 C.ar    1  UNL1        0.1401
     28 F         137.6153  138.8192  167.8589 F       1  UNL1       -0.2042
     29 C         138.0500  140.0576  165.6167 C.ar    1  UNL1        0.0293
     30 C         138.4933  140.0331  164.1840 C.ar    1  UNL1       -0.0019
@<TRIPOS>BOND
     1    13    14    1
     2    14    15    1
     3    14     3    1
     4     3     4   ar
     5     4     5   ar
     6     5     9    1
     7     9    10    1
     8     9    11    1
     9     9    12    1
    10     5     6   ar
    11     6     7   ar
    12     7     2    1
    13     2     1    1
    14     1    16    1
    15    16    17    1
    16    17    24    1
    17    24    25   ar
    18    25    26   ar
    19    26    27   ar
    20    27    28    1
    21    27    29   ar
    22    29    30   ar
    23    17    18    1
    24    18    19    1
    25    19    20    1
    26    20    21    1
    27    20    22    1
    28    22    23    1
    29     7     8   ar
    30     8     3   ar
    31    23    17    1
    32    30    24   ar
@<TRIPOS>MOLECULE
*****
 30 32 0 0 0
SMALL
GASTEIGER

@<TRIPOS>ATOM
      1 O         143.1872  138.7318  164.0782 O.3     1  UNL1       -0.3470
      2 C         141.8738  138.1805  163.6081 C.3     1  UNL1        0.1874
      3 C         138.8081  140.6557  164.0828 C.ar    1  UNL1        0.0583
      4 C         138.0215  139.9339  165.1364 C.ar    1  UNL1        0.0186
      5 C         138.5189  138.6275  165.6805 C.ar    1  UNL1        0.0738
      6 C         139.8030  138.0431  165.1711 C.ar    1  UNL1        0.0211
      7 C         140.5896  138.7650  164.1176 C.ar    1  UNL1        0.0883
      8 N         140.0922  140.0713  163.5734 N.ar    1  UNL1       -0.2515
      9 C         137.7321  137.9057  166.7341 C.3     1  UNL1        0.4187
     10 F         136.9454  137.1838  167.7877 F       1  UNL1       -0.1659
     11 F         137.4926  139.2045  167.4451 F       1  UNL1       -0.1659
     12 F         137.9716  136.6068  166.0231 F       1  UNL1       -0.1659
     13 C         138.0262  142.1043  162.0728 C.3     1  UNL1        0.0063
     14 C         138.3107  141.9621  163.5387 C.3     1  UNL1        0.0403
     15 C         138.0979  143.1262  164.4604 C.3     1  UNL1        0.0063
     16 C         143.2533  139.5383  165.3413 C.3     1  UNL1        0.1467
     17 C         143.0597  141.0249  165.2929 C.3     1  UNL1        0.0489
     18 C         143.8887  140.8298  164.0581 C.3     1  UNL1        0.0238
     19 C         144.2595  142.0098  163.2096 C.3     1  UNL1        0.0725
     20 N         143.8014  143.3849  163.5958 N.3     1  UNL1       -0.2715
     21 C         144.1723  144.5649  162.7473 C.3     1  UNL1        0.0896
     22 C         142.9724  143.5800  164.8306 C.3     1  UNL1        0.0725
     23 C         142.6016  142.4000  165.6791 C.3     1  UNL1        0.0238
     24 C         142.2979  140.7037  166.5445 C.ar    1  UNL1       -0.0202
     25 C         140.9888  141.3819  166.8206 C.ar    1  UNL1       -0.0019
     26 C         140.2270  141.0606  168.0722 C.ar    1  UNL1        0.0293
     27 C         140.7743  140.0613  169.0477 C.ar    1  UNL1        0.1401
     28 F         140.0127  139.7400  170.2993 F       1  UNL1       -0.2042
     29 C         142.0836  139.3830  168.7716 C.ar    1  UNL1        0.0293
     30 C         142.8453  139.7043  167.5200 C.ar    1  UNL1       -0.0019
@<TRIPOS>BOND
     1    13    14    1
     2    14    15    1
     3    14     3    1
     4     3     4   ar
     5     4     5   ar
     6     5     9    1
     7     9    10    1
     8     9    11    1
     9     9    12    1
    10     5     6   ar
    11     6     7   ar
    12     7     2    1
    13     2     1    1
    14     1    16    1
    15    16    17    1
    16    17    24    1
    17    24    25   ar
    18    25    26   ar
    19    26    27   ar
    20    27    28    1
    21    27    29   ar
    22    29    30   ar
    23    17    18    1
    24    18    19    1
    25    19    20    1
    26    20    21    1
    27    20    22    1
    28    22    23    1
    29     7     8   ar
    30     8     3   ar
    31    23    17    1
    32    30    24   ar
@<TRIPOS>MOLECULE
*****
 30 32 0 0 0
SMALL
GASTEIGER

@<TRIPOS>ATOM
      1 O         140.0094  141.0169  161.9981 O.3     1  UNL1       -0.3470
      2 C         139.2849  141.7133  163.1115 C.3     1  UNL1        0.1874
      3 C         140.2414  141.3828  166.9490 C.ar    1  UNL1        0.0583
      4 C         139.5350  140.1093  167.3085 C.ar    1  UNL1        0.0186
      5 C         138.7452  139.3705  166.2691 C.ar    1  UNL1        0.0738
      6 C         138.6618  139.9052  164.8701 C.ar    1  UNL1        0.0211
      7 C         139.3682  141.1786  164.5106 C.ar    1  UNL1        0.0883
      8 N         140.1580  141.9174  165.5500 N.ar    1  UNL1       -0.2515
      9 C         138.0387  138.0971  166.6287 C.3     1  UNL1        0.4187
     10 F         137.3324  136.8236  166.9883 F       1  UNL1       -0.1659
     11 F         138.6513  137.4211  165.4380 F       1  UNL1       -0.1659
     12 F         137.4262  138.7730  167.8194 F       1  UNL1       -0.1659
     13 C         140.3220  142.8646  169.0814 C.3     1  UNL1        0.0063
     14 C         141.0312  142.1216  167.9884 C.3     1  UNL1        0.0403
     15 C         142.5302  142.1173  167.9348 C.3     1  UNL1        0.0063
     16 C         141.4845  140.7657  162.1046 C.3     1  UNL1        0.1467
     17 C         142.0694  139.4934  161.5670 C.3     1  UNL1        0.0489
     18 C         141.6053  140.1272  160.2892 C.3     1  UNL1        0.0238
     19 C         141.8168  139.4220  158.9822 C.3     1  UNL1        0.0725
     20 N         142.4923  138.0831  158.9532 N.3     1  UNL1       -0.2715
     21 C         142.7038  137.3779  157.6463 C.3     1  UNL1        0.0896
     22 C         142.9564  137.4493  160.2310 C.3     1  UNL1        0.0725
     23 C         142.7450  138.1544  161.5379 C.3     1  UNL1        0.0238
     24 C         142.3304  139.3015  163.0316 C.ar    1  UNL1       -0.0202
     25 C         141.7362  138.1274  163.7517 C.ar    1  UNL1       -0.0019
     26 C         141.9972  137.9355  165.2164 C.ar    1  UNL1        0.0293
     27 C         142.8523  138.9176  165.9608 C.ar    1  UNL1        0.1401
     28 F         143.1133  138.7258  167.4254 F       1  UNL1       -0.2042
     29 C         143.4464  140.0917  165.2406 C.ar    1  UNL1        0.0293
     30 C         143.1854  140.2836  163.7761 C.ar    1  UNL1       -0.0019
@<TRIPOS>BOND
     1    13    14    1
     2    14    15    1
     3    14     3    1
     4     3     4   ar
     5     4     5   ar
     6     5     9    1
     7     9    10    1
     8     9    11    1
     9     9    12    1
    10     5     6   ar
    11     6     7   ar
    12     7     2    1
    13     2     1    1
    14     1    16    1
    15    16    17    1
    16    17    24    1
    17    24    25   ar
    18    25    26   ar
    19    26    27   ar
    20    27    28    1
    21    27    29   ar
    22    29    30   ar
    23    17    18    1
    24    18    19    1
    25    19    20    1
    26    20    21    1
    27    20    22    1
    28    22    23    1
    29     7     8   ar
    30     8     3   ar
    31    23    17    1
    32    30    24   ar
@<TRIPOS>MOLECULE
*****
 30 32 0 0 0
SMALL
GASTEIGER

@<TRIPOS>ATOM
      1 O         143.4229  140.4342  165.6714 O.3     1  UNL1       -0.3470
      2 C         143.3744  141.4195  164.5414 C.3     1  UNL1        0.1874
      3 C         140.1730  141.9958  162.2679 C.ar    1  UNL1        0.0583
      4 C         139.4136  142.9906  163.0946 C.ar    1  UNL1        0.0186
      5 C         139.9744  143.4618  164.4036 C.ar    1  UNL1        0.0738
      6 C         141.2947  142.9380  164.8859 C.ar    1  UNL1        0.0211
      7 C         142.0541  141.9432  164.0592 C.ar    1  UNL1        0.0883
      8 N         141.4933  141.4721  162.7501 N.ar    1  UNL1       -0.2515
      9 C         139.2149  144.4566  165.2304 C.3     1  UNL1        0.4187
     10 F         138.4555  145.4514  166.0571 F       1  UNL1       -0.1659
     11 F         139.6758  143.7690  166.4812 F       1  UNL1       -0.1659
     12 F         138.7540  145.1443  163.9795 F       1  UNL1       -0.1659
     13 C         138.5444  142.3217  160.2701 C.3     1  UNL1        0.0063
     14 C         139.6122  141.5247  160.9588 C.3     1  UNL1        0.0403
     15 C         140.1192  140.2566  160.3386 C.3     1  UNL1        0.0063
     16 C         142.2863  139.4784  165.8824 C.3     1  UNL1        0.1467
     17 C         141.2597  139.7556  166.9403 C.3     1  UNL1        0.0489
     18 C         142.5150  139.9617  167.7351 C.3     1  UNL1        0.0238
     19 C         142.4317  140.3400  169.1842 C.3     1  UNL1        0.0725
     20 N         141.0929  140.5122  169.8385 N.3     1  UNL1       -0.2715
     21 C         141.0095  140.8906  171.2876 C.3     1  UNL1        0.0896
     22 C         139.8376  140.3061  169.0438 C.3     1  UNL1        0.0725
     23 C         139.9210  139.9278  167.5947 C.3     1  UNL1        0.0238
     24 C         140.3609  139.4532  165.7781 C.ar    1  UNL1       -0.0202
     25 C         140.7778  138.4430  164.7506 C.ar    1  UNL1       -0.0019
     26 C         139.8790  138.1406  163.5884 C.ar    1  UNL1        0.0293
     27 C         138.5633  138.8483  163.4537 C.ar    1  UNL1        0.1401
     28 F         137.6645  138.5460  162.2916 F       1  UNL1       -0.2042
     29 C         138.1464  139.8585  164.4813 C.ar    1  UNL1        0.0293
     30 C         139.0453  140.1609  165.6435 C.ar    1  UNL1       -0.0019
@<TRIPOS>BOND
     1    13    14    1
     2    14    15    1
     3    14     3    1
     4     3     4   ar
     5     4     5   ar
     6     5     9    1
     7     9    10    1
     8     9    11    1
     9     9    12    1
    10     5     6   ar
    11     6     7   ar
    12     7     2    1
    13     2     1    1
    14     1    16    1
    15    16    17    1
    16    17    24    1
    17    24    25   ar
    18    25    26   ar
    19    26    27   ar
    20    27    28    1
    21    27    29   ar
    22    29    30   ar
    23    17    18    1
    24    18    19    1
    25    19    20    1
    26    20    21    1
    27    20    22    1
    28    22    23    1
    29     7     8   ar
    30     8     3   ar
    31    23    17    1
    32    30    24   ar
@<TRIPOS>MOLECULE
*****
 30 32 0 0 0
SMALL
GASTEIGER

@<TRIPOS>ATOM
      1 O         143.0780  138.7538  164.0141 O.3     1  UNL1       -0.3470
      2 C         143.4163  139.6286  165.1846 C.3     1  UNL1        0.1874
      3 C         141.1107  142.8507  165.4142 C.ar    1  UNL1        0.0583
      4 C         140.4060  142.6029  166.7149 C.ar    1  UNL1        0.0186
      5 C         140.7048  141.3637  167.5056 C.ar    1  UNL1        0.0738
      6 C         141.7082  140.3723  166.9955 C.ar    1  UNL1        0.0211
      7 C         142.4128  140.6200  165.6948 C.ar    1  UNL1        0.0883
      8 N         142.1141  141.8592  164.9041 N.ar    1  UNL1       -0.2515
      9 C         140.0000  141.1159  168.8064 C.3     1  UNL1        0.4187
     10 F         139.2954  140.8681  170.1072 F       1  UNL1       -0.1659
     11 F         139.9894  139.6435  168.5202 F       1  UNL1       -0.1659
     12 F         140.0107  142.5883  169.0927 F       1  UNL1       -0.1659
     13 C         139.4183  144.6437  164.5953 C.3     1  UNL1        0.0063
     14 C         140.8119  144.0899  164.6235 C.3     1  UNL1        0.0403
     15 C         141.9069  144.7752  163.8611 C.3     1  UNL1        0.0063
     16 C         141.7592  138.0405  163.9672 C.3     1  UNL1        0.1467
     17 C         140.8170  138.2803  162.8249 C.3     1  UNL1        0.0489
     18 C         142.0973  138.0809  162.0692 C.3     1  UNL1        0.0238
     19 C         142.1044  138.1617  160.5714 C.3     1  UNL1        0.0725
     20 N         140.8312  138.4418  159.8293 N.3     1  UNL1       -0.2715
     21 C         140.8384  138.5225  158.3315 C.3     1  UNL1        0.0896
     22 C         139.5510  138.6412  160.5851 C.3     1  UNL1        0.0725
     23 C         139.5439  138.5605  162.0829 C.3     1  UNL1        0.0238
     24 C         139.8640  138.3965  163.9774 C.ar    1  UNL1       -0.0202
     25 C         139.5747  137.2002  164.8348 C.ar    1  UNL1       -0.0019
     26 C         138.6216  137.3163  165.9873 C.ar    1  UNL1        0.0293
     27 C         137.9578  138.6286  166.2824 C.ar    1  UNL1        0.1401
     28 F         137.0048  138.7448  167.4348 F       1  UNL1       -0.2042
     29 C         138.2472  139.8250  165.4249 C.ar    1  UNL1        0.0293
     30 C         139.2002  139.7088  164.2725 C.ar    1  UNL1       -0.0019
@<TRIPOS>BOND
     1    13    14    1
     2    14    15    1
     3    14     3    1
     4     3     4   ar
     5     4     5   ar
     6     5     9    1
     7     9    10    1
     8     9    11    1
     9     9    12    1
    10     5     6   ar
    11     6     7   ar
    12     7     2    1
    13     2     1    1
    14     1    16    1
    15    16    17    1
    16    17    24    1
    17    24    25   ar
    18    25    26   ar
    19    26    27   ar
    20    27    28    1
    21    27    29   ar
    22    29    30   ar
    23    17    18    1
    24    18    19    1
    25    19    20    1
    26    20    21    1
    27    20    22    1
    28    22    23    1
    29     7     8   ar
    30     8     3   ar
    31    23    17    1
    32    30    24   ar
@<TRIPOS>MOLECULE
*****
 30 32 0 0 0
SMALL
GASTEIGER

@<TRIPOS>ATOM
      1 O         141.8034  137.9856  162.3647 O.3     1  UNL1       -0.3470
      2 C         142.7116  138.5040  163.4400 C.3     1  UNL1        0.1874
      3 C         141.5767  140.3346  166.7733 C.ar    1  UNL1        0.0583
      4 C         141.2696  141.7073  166.2523 C.ar    1  UNL1        0.0186
      5 C         141.4432  142.0123  164.7940 C.ar    1  UNL1        0.0738
      6 C         141.9239  140.9445  163.8565 C.ar    1  UNL1        0.0211
      7 C         142.2309  139.5719  164.3774 C.ar    1  UNL1        0.0883
      8 N         142.0573  139.2669  165.8358 N.ar    1  UNL1       -0.2515
      9 C         141.1361  143.3850  164.2730 C.3     1  UNL1        0.4187
     10 F         140.8290  144.7577  163.7522 F       1  UNL1       -0.1659
     11 F         139.6770  143.1586  164.5365 F       1  UNL1       -0.1659
     12 F         142.5953  143.6115  164.0096 F       1  UNL1       -0.1659
     13 C         140.1454  140.4394  168.9390 C.3     1  UNL1        0.0063
     14 C         141.4031  140.0297  168.2316 C.3     1  UNL1        0.0403
     15 C         142.4871  139.3151  168.9827 C.3     1  UNL1        0.0063
     16 C         140.3475  137.7681  162.6530 C.3     1  UNL1        0.1467
     17 C         139.3209  138.6928  162.0692 C.3     1  UNL1        0.0489
     18 C         140.0938  138.3466  160.8311 C.3     1  UNL1        0.0238
     19 C         139.6955  138.9338  159.5096 C.3     1  UNL1        0.0725
     20 N         138.5243  139.8673  159.4261 N.3     1  UNL1       -0.2715
     21 C         138.1260  140.4546  158.1045 C.3     1  UNL1        0.0896
     22 C         137.7514  140.2136  160.6641 C.3     1  UNL1        0.0725
     23 C         138.1497  139.6264  161.9857 C.3     1  UNL1        0.0238
     24 C         138.9046  138.7179  163.5100 C.ar    1  UNL1       -0.0202
     25 C         138.4343  139.9990  164.1326 C.ar    1  UNL1       -0.0019
     26 C         138.0180  140.0241  165.5735 C.ar    1  UNL1        0.0293
     27 C         138.0719  138.7682  166.3917 C.ar    1  UNL1        0.1401
     28 F         137.6555  138.7932  167.8325 F       1  UNL1       -0.2042
     29 C         138.5421  137.4870  165.7691 C.ar    1  UNL1        0.0293
     30 C         138.9584  137.4620  164.3283 C.ar    1  UNL1       -0.0019
@<TRIPOS>BOND
     1    13    14    1
     2    14    15    1
     3    14     3    1
     4     3     4   ar
     5     4     5   ar
     6     5     9    1
     7     9    10    1
     8     9    11    1
     9     9    12    1
    10     5     6   ar
    11     6     7   ar
    12     7     2    1
    13     2     1    1
    14     1    16    1
    15    16    17    1
    16    17    24    1
    17    24    25   ar
    18    25    26   ar
    19    26    27   ar
    20    27    28    1
    21    27    29   ar
    22    29    30   ar
    23    17    18    1
    24    18    19    1
    25    19    20    1
    26    20    21    1
    27    20    22    1
    28    22    23    1
    29     7     8   ar
    30     8     3   ar
    31    23    17    1
    32    30    24   ar
@<TRIPOS>MOLECULE
*****
 30 32 0 0 0
SMALL
GASTEIGER

@<TRIPOS>ATOM
      1 O         141.3878  139.0859  165.4004 O.3     1  UNL1       -0.3470
      2 C         140.5300  139.4033  164.2116 C.3     1  UNL1        0.1874
      3 C         140.9011  142.7302  162.0797 C.ar    1  UNL1        0.0583
      4 C         140.0369  143.6695  162.8675 C.ar    1  UNL1        0.0186
      5 C         139.3370  143.1868  164.1033 C.ar    1  UNL1        0.0738
      6 C         139.5014  141.7648  164.5513 C.ar    1  UNL1        0.0211
      7 C         140.3656  140.8255  163.7636 C.ar    1  UNL1        0.0883
      8 N         141.0655  141.3081  162.5278 N.ar    1  UNL1       -0.2515
      9 C         138.4727  144.1263  164.8911 C.3     1  UNL1        0.4187
     10 F         137.6085  145.0657  165.6789 F       1  UNL1       -0.1659
     11 F         139.6053  145.1070  164.9640 F       1  UNL1       -0.1659
     12 F         137.3402  143.1456  164.8182 F       1  UNL1       -0.1659
     13 C         141.3046  144.5786  160.2992 C.3     1  UNL1        0.0063
     14 C         141.6010  143.2128  160.8439 C.3     1  UNL1        0.0403
     15 C         142.5973  142.3298  160.1529 C.3     1  UNL1        0.0063
     16 C         142.6622  139.8433  165.6294 C.3     1  UNL1        0.1467
     17 C         142.7507  140.8428  166.7444 C.3     1  UNL1        0.0489
     18 C         142.1931  139.6677  167.4915 C.3     1  UNL1        0.0238
     19 C         141.9069  139.7796  168.9597 C.3     1  UNL1        0.0725
     20 N         142.1783  141.0666  169.6807 N.3     1  UNL1       -0.2715
     21 C         141.8921  141.1785  171.1489 C.3     1  UNL1        0.0896
     22 C         142.7359  142.2417  168.9336 C.3     1  UNL1        0.0725
     23 C         143.0221  142.1298  167.4655 C.3     1  UNL1        0.0238
     24 C         143.2776  141.6708  165.6100 C.ar    1  UNL1       -0.0202
     25 C         144.2320  141.0685  164.6219 C.ar    1  UNL1       -0.0019
     26 C         144.7589  141.8965  163.4875 C.ar    1  UNL1        0.0293
     27 C         144.3313  143.3268  163.3412 C.ar    1  UNL1        0.1401
     28 F         144.8582  144.1548  162.2069 F       1  UNL1       -0.2042
     29 C         143.3769  143.9291  164.3294 C.ar    1  UNL1        0.0293
     30 C         142.8500  143.1011  165.4637 C.ar    1  UNL1       -0.0019
@<TRIPOS>BOND
     1    13    14    1
     2    14    15    1
     3    14     3    1
     4     3     4   ar
     5     4     5   ar
     6     5     9    1
     7     9    10    1
     8     9    11    1
     9     9    12    1
    10     5     6   ar
    11     6     7   ar
    12     7     2    1
    13     2     1    1
    14     1    16    1
    15    16    17    1
    16    17    24    1
    17    24    25   ar
    18    25    26   ar
    19    26    27   ar
    20    27    28    1
    21    27    29   ar
    22    29    30   ar
    23    17    18    1
    24    18    19    1
    25    19    20    1
    26    20    21    1
    27    20    22    1
    28    22    23    1
    29     7     8   ar
    30     8     3   ar
    31    23    17    1
    32    30    24   ar
@<TRIPOS>MOLECULE
*****
 30 32 0 0 0
SMALL
GASTEIGER

@<TRIPOS>ATOM
      1 O         144.4318  143.7499  163.9836 O.3     1  UNL1       -0.3470
      2 C         143.6053  144.9727  163.7159 C.3     1  UNL1        0.1874
      3 C         140.7160  144.6346  161.0162 C.ar    1  UNL1        0.0583
      4 C         139.5073  144.5657  161.9018 C.ar    1  UNL1        0.0186
      5 C         139.6646  144.6325  163.3920 C.ar    1  UNL1        0.0738
      6 C         141.0305  144.7681  163.9967 C.ar    1  UNL1        0.0211
      7 C         142.2392  144.8370  163.1112 C.ar    1  UNL1        0.0883
      8 N         142.0820  144.7702  161.6209 N.ar    1  UNL1       -0.2515
      9 C         138.4558  144.5636  164.2776 C.3     1  UNL1        0.4187
     10 F         137.2471  144.4947  165.1631 F       1  UNL1       -0.1659
     11 F         139.2476  145.1576  165.4045 F       1  UNL1       -0.1659
     12 F         137.6640  143.9695  163.1506 F       1  UNL1       -0.1659
     13 C         139.6150  143.5748  158.9152 C.3     1  UNL1        0.0063
     14 C         140.5588  144.5678  159.5260 C.3     1  UNL1        0.0403
     15 C         141.3454  145.4940  158.6466 C.3     1  UNL1        0.0063
     16 C         144.0305  142.7964  165.0698 C.3     1  UNL1        0.1467
     17 C         143.4233  141.4708  164.7177 C.3     1  UNL1        0.0489
     18 C         144.4955  141.5523  163.6719 C.3     1  UNL1        0.0238
     19 C         144.6614  140.4398  162.6795 C.3     1  UNL1        0.0725
     20 N         143.7550  139.2458  162.7330 N.3     1  UNL1       -0.2715
     21 C         143.9209  138.1332  161.7407 C.3     1  UNL1        0.0896
     22 C         142.6828  139.1643  163.7788 C.3     1  UNL1        0.0725
     23 C         142.5170  140.2768  164.7712 C.3     1  UNL1        0.0238
     24 C         142.5620  141.8497  165.8858 C.ar    1  UNL1       -0.0202
     25 C         143.1922  142.1819  167.2058 C.ar    1  UNL1       -0.0019
     26 C         142.3309  142.5608  168.3740 C.ar    1  UNL1        0.0293
     27 C         140.8394  142.6075  168.2222 C.ar    1  UNL1        0.1401
     28 F         139.9780  142.9864  169.3902 F       1  UNL1       -0.2042
     29 C         140.2091  142.2753  166.9021 C.ar    1  UNL1        0.0293
     30 C         141.0704  141.8964  165.7340 C.ar    1  UNL1       -0.0019
@<TRIPOS>BOND
     1    13    14    1
     2    14    15    1
     3    14     3    1
     4     3     4   ar
     5     4     5   ar
     6     5     9    1
     7     9    10    1
     8     9    11    1
     9     9    12    1
    10     5     6   ar
    11     6     7   ar
    12     7     2    1
    13     2     1    1
    14     1    16    1
    15    16    17    1
    16    17    24    1
    17    24    25   ar
    18    25    26   ar
    19    26    27   ar
    20    27    28    1
    21    27    29   ar
    22    29    30   ar
    23    17    18    1
    24    18    19    1
    25    19    20    1
    26    20    21    1
    27    20    22    1
    28    22    23    1
    29     7     8   ar
    30     8     3   ar
    31    23    17    1
    32    30    24   ar
@<TRIPOS>MOLECULE
*****
 30 32 0 0 0
SMALL
GASTEIGER

@<TRIPOS>ATOM
      1 O         141.1211  139.2587  165.3526 O.3     1  UNL1       -0.3470
      2 C         142.1319  139.6775  164.3266 C.3     1  UNL1        0.1874
      3 C         141.5675  143.0996  162.3976 C.ar    1  UNL1        0.0583
      4 C         142.4886  144.0081  163.1565 C.ar    1  UNL1        0.0186
      5 C         143.2909  143.4731  164.3055 C.ar    1  UNL1        0.0738
      6 C         143.1720  142.0296  164.6955 C.ar    1  UNL1        0.0211
      7 C         142.2508  141.1211  163.9366 C.ar    1  UNL1        0.0883
      8 N         141.4486  141.6561  162.7876 N.ar    1  UNL1       -0.2515
      9 C         144.2121  144.3817  165.0645 C.3     1  UNL1        0.4187
     10 F         145.1332  145.2902  165.8234 F       1  UNL1       -0.1659
     11 F         144.4475  143.2986  166.0751 F       1  UNL1       -0.1659
     12 F         143.9766  145.4647  164.0538 F       1  UNL1       -0.1659
     13 C         140.1435  142.6896  160.2636 C.3     1  UNL1        0.0063
     14 C         140.7652  143.6346  161.2486 C.3     1  UNL1        0.0403
     15 C         140.5847  145.1146  161.0846 C.3     1  UNL1        0.0063
     16 C         140.0084  140.1900  165.7331 C.3     1  UNL1        0.1467
     17 C         140.1925  141.1547  166.8668 C.3     1  UNL1        0.0489
     18 C         140.8050  139.9251  167.4691 C.3     1  UNL1        0.0238
     19 C         141.3667  139.9708  168.8592 C.3     1  UNL1        0.0725
     20 N         141.3159  141.2463  169.6470 N.3     1  UNL1       -0.2715
     21 C         141.8776  141.2921  171.0371 C.3     1  UNL1        0.0896
     22 C         140.7034  142.4759  169.0447 C.3     1  UNL1        0.0725
     23 C         140.1417  142.4302  167.6546 C.3     1  UNL1        0.0238
     24 C         139.5161  142.0493  165.8708 C.ar    1  UNL1       -0.0202
     25 C         138.4812  141.4889  164.9408 C.ar    1  UNL1       -0.0019
     26 C         137.8047  142.3835  163.9447 C.ar    1  UNL1        0.0293
     27 C         138.1631  143.8385  163.8787 C.ar    1  UNL1        0.1401
     28 F         137.4867  144.7332  162.8827 F       1  UNL1       -0.2042
     29 C         139.1981  144.3990  164.8087 C.ar    1  UNL1        0.0293
     30 C         139.8745  143.5043  165.8047 C.ar    1  UNL1       -0.0019
@<TRIPOS>BOND
     1    13    14    1
     2    14    15    1
     3    14     3    1
     4     3     4   ar
     5     4     5   ar
     6     5     9    1
     7     9    10    1
     8     9    11    1
     9     9    12    1
    10     5     6   ar
    11     6     7   ar
    12     7     2    1
    13     2     1    1
    14     1    16    1
    15    16    17    1
    16    17    24    1
    17    24    25   ar
    18    25    26   ar
    19    26    27   ar
    20    27    28    1
    21    27    29   ar
    22    29    30   ar
    23    17    18    1
    24    18    19    1
    25    19    20    1
    26    20    21    1
    27    20    22    1
    28    22    23    1
    29     7     8   ar
    30     8     3   ar
    31    23    17    1
    32    30    24   ar
