@<TRIPOS>MOLECULE
*****
 33 37 0 0 0
SMALL
GASTEIGER

@<TRIPOS>ATOM
      1 N         143.2845  143.7330  163.5612 N.3     1  UNL1       -0.2726
      2 C         143.0481  145.1942  163.3187 C.3     1  UNL1        0.0721
      3 C         141.6389  145.5093  163.7249 C.3     1  UNL1        0.0190
      4 C         141.0045  144.2428  164.2183 C.3     1  UNL1        0.0201
      5 C         139.6696  144.8492  164.5351 C.3     1  UNL1        0.0061
      6 C         139.9061  143.3879  164.7776 C.3     1  UNL1        0.0237
      7 C         142.0216  143.1450  164.1171 C.3     1  UNL1        0.0724
      8 C         139.4085  142.0507  165.2404 C.ar    1  UNL1       -0.0225
      9 C         139.8207  141.5203  166.5816 C.ar    1  UNL1       -0.0043
     10 C         139.3231  140.1831  167.0445 C.ar    1  UNL1        0.0035
     11 C         138.4133  139.3763  166.1661 C.ar    1  UNL1        0.0714
     12 C         138.0011  139.9068  164.8249 C.ar    1  UNL1        0.0035
     13 C         138.4987  141.2440  164.3621 C.ar    1  UNL1       -0.0043
     14 C         137.9157  138.0391  166.6290 C.3     1  UNL1        0.4186
     15 F         137.4181  136.7018  167.0918 F       1  UNL1       -0.1659
     16 F         137.3518  138.6765  167.8642 F       1  UNL1       -0.1659
     17 F         138.4796  137.4018  165.3938 F       1  UNL1       -0.1659
     18 C         144.5601  142.9901  163.2945 C.3     1  UNL1        0.0730
     19 C         145.1828  142.1569  164.3752 C.3     1  UNL1        0.0294
     20 C         145.8036  140.8335  164.0384 C.3     1  UNL1        0.0666
     21 S         144.9377  139.6206  163.8678 S.3     1  UNL1       -0.0756
     22 C         141.7324  139.3254  164.4045 C.3     1  UNL1        0.1340
     23 N         142.3925  139.4703  163.0653 N.ar    1  UNL1       -0.2872
     24 C         143.8658  139.6060  162.8187 C.ar    1  UNL1        0.1933
     25 N         144.0791  139.7244  161.3386 N.ar    1  UNL1       -0.1221
     26 N         142.7375  139.6619  160.6706 N.ar    1  UNL1       -0.1267
     27 C         141.6951  139.5048  161.7377 C.ar    1  UNL1        0.1846
     28 C         140.2152  139.4007  161.5161 C.ar    1  UNL1        0.1171
     29 C         139.4720  140.5324  160.8704 C.ar    1  UNL1        0.0223
     30 C         137.9921  140.4282  160.6488 C.ar    1  UNL1        0.0032
     31 C         137.2555  139.1922  161.0730 C.ar    1  UNL1        0.0207
     32 C         137.9987  138.0605  161.7186 C.ar    1  UNL1        0.0989
     33 N         139.4786  138.1647  161.9402 N.ar    1  UNL1       -0.2407
@<TRIPOS>BOND
     1    22    23    1
     2    23    24   ar
     3    24    21    1
     4    21    20    1
     5    20    19    1
     6    19    18    1
     7    18     1    1
     8     1     2    1
     9     2     3    1
    10     4     3    1
    11     4     5    1
    12     5     6    1
    13     6     8    1
    14     8     9   ar
    15     9    10   ar
    16    10    11   ar
    17    11    14    1
    18    14    15    1
    19    14    16    1
    20    14    17    1
    21    11    12   ar
    22    12    13   ar
    23     4     7    1
    24    24    25   ar
    25    25    26   ar
    26    26    27   ar
    27    27    28    1
    28    28    29   ar
    29    29    30   ar
    30    30    31   ar
    31    31    32   ar
    32    32    33   ar
    33    27    23   ar
    34    33    28   ar
    35     7     1    1
    36     6     4    1
    37    13     8   ar
@<TRIPOS>MOLECULE
*****
 33 37 0 0 0
SMALL
GASTEIGER

@<TRIPOS>ATOM
      1 N         142.8966  142.9295  161.3833 N.3     1  UNL1       -0.2726
      2 C         144.2560  142.8937  160.7503 C.3     1  UNL1        0.0721
      3 C         145.2049  142.2624  161.7256 C.3     1  UNL1        0.0190
      4 C         144.4318  141.9082  162.9613 C.3     1  UNL1        0.0201
      5 C         145.5930  141.3255  163.7111 C.3     1  UNL1        0.0061
      6 C         144.2336  141.3614  164.3440 C.3     1  UNL1        0.0237
      7 C         143.0052  142.3205  162.7497 C.3     1  UNL1        0.0724
      8 C         143.3342  141.0664  165.5077 C.ar    1  UNL1       -0.0225
      9 C         142.6019  139.7592  165.5771 C.ar    1  UNL1       -0.0043
     10 C         141.7026  139.4642  166.7408 C.ar    1  UNL1        0.0035
     11 C         141.5356  140.4765  167.8350 C.ar    1  UNL1        0.0714
     12 C         142.2679  141.7838  167.7656 C.ar    1  UNL1        0.0035
     13 C         143.1672  142.0787  166.6019 C.ar    1  UNL1       -0.0043
     14 C         140.6362  140.1816  168.9987 C.3     1  UNL1        0.4186
     15 F         139.7369  139.8866  170.1625 F       1  UNL1       -0.1659
     16 F         139.6342  141.1668  168.4741 F       1  UNL1       -0.1659
     17 F         141.6382  139.1963  169.5234 F       1  UNL1       -0.1659
     18 C         141.6477  143.4781  160.7593 C.3     1  UNL1        0.0730
     19 C         141.3479  144.9453  160.8464 C.3     1  UNL1        0.0294
     20 C         139.9602  145.4089  161.1775 C.3     1  UNL1        0.0666
     21 S         139.3101  144.9752  162.4578 S.3     1  UNL1       -0.0756
     22 C         140.1286  142.7826  164.7320 C.3     1  UNL1        0.1340
     23 N         139.1315  142.5795  163.6299 N.ar    1  UNL1       -0.2872
     24 C         138.7553  143.5874  162.5846 C.ar    1  UNL1        0.1933
     25 N         137.7268  142.9637  161.6882 N.ar    1  UNL1       -0.1221
     26 N         137.4674  141.5704  162.1796 N.ar    1  UNL1       -0.1267
     27 C         138.3356  141.3329  163.3796 C.ar    1  UNL1        0.1846
     28 C         138.3970  140.0705  164.1875 C.ar    1  UNL1        0.1171
     29 C         138.0713  140.1004  165.6514 C.ar    1  UNL1        0.0223
     30 C         138.1328  138.8380  166.4592 C.ar    1  UNL1        0.0032
     31 C         138.5198  137.5458  165.8031 C.ar    1  UNL1        0.0207
     32 C         138.8455  137.5160  164.3391 C.ar    1  UNL1        0.0989
     33 N         138.7840  138.7784  163.5313 N.ar    1  UNL1       -0.2407
@<TRIPOS>BOND
     1    22    23    1
     2    23    24   ar
     3    24    21    1
     4    21    20    1
     5    20    19    1
     6    19    18    1
     7    18     1    1
     8     1     2    1
     9     2     3    1
    10     4     3    1
    11     4     5    1
    12     5     6    1
    13     6     8    1
    14     8     9   ar
    15     9    10   ar
    16    10    11   ar
    17    11    14    1
    18    14    15    1
    19    14    16    1
    20    14    17    1
    21    11    12   ar
    22    12    13   ar
    23     4     7    1
    24    24    25   ar
    25    25    26   ar
    26    26    27   ar
    27    27    28    1
    28    28    29   ar
    29    29    30   ar
    30    30    31   ar
    31    31    32   ar
    32    32    33   ar
    33    27    23   ar
    34    33    28   ar
    35     7     1    1
    36     6     4    1
    37    13     8   ar
@<TRIPOS>MOLECULE
*****
 33 37 0 0 0
SMALL
GASTEIGER

@<TRIPOS>ATOM
      1 N         141.3593  138.1591  163.3268 N.3     1  UNL1       -0.2726
      2 C         140.0573  137.5507  162.8971 C.3     1  UNL1        0.0721
      3 C         139.0105  137.9416  163.8979 C.3     1  UNL1        0.0190
      4 C         139.6656  138.7915  164.9460 C.3     1  UNL1        0.0201
      5 C         138.4277  139.0145  165.7633 C.3     1  UNL1        0.0061
      6 C         139.7298  139.6228  166.1929 C.3     1  UNL1        0.0237
      7 C         141.1172  138.9259  164.5930 C.3     1  UNL1        0.0724
      8 C         140.5186  140.4540  167.1609 C.ar    1  UNL1       -0.0225
      9 C         140.1023  141.8657  167.4502 C.ar    1  UNL1       -0.0043
     10 C         140.8911  142.6969  168.4181 C.ar    1  UNL1        0.0035
     11 C         142.0962  142.1162  169.0968 C.ar    1  UNL1        0.0714
     12 C         142.5125  140.7045  168.8075 C.ar    1  UNL1        0.0035
     13 C         141.7237  139.8733  167.8396 C.ar    1  UNL1       -0.0043
     14 C         142.8850  142.9474  170.0648 C.3     1  UNL1        0.4186
     15 F         143.6738  143.7786  171.0328 F       1  UNL1       -0.1659
     16 F         144.0455  142.0071  169.9264 F       1  UNL1       -0.1659
     17 F         141.7245  143.8876  170.2031 F       1  UNL1       -0.1659
     18 C         142.6729  138.0243  162.6151 C.3     1  UNL1        0.0730
     19 C         142.8087  138.4920  161.1964 C.3     1  UNL1        0.0294
     20 C         144.0172  139.2757  160.7775 C.3     1  UNL1        0.0666
     21 S         144.0606  140.7595  160.9930 S.3     1  UNL1       -0.0756
     22 C         140.9548  141.7613  161.0104 C.3     1  UNL1        0.1340
     23 N         141.9100  141.8302  162.1649 N.ar    1  UNL1       -0.2872
     24 C         143.3375  141.3697  162.1569 C.ar    1  UNL1        0.1933
     25 N         143.9151  141.6266  163.5172 N.ar    1  UNL1       -0.1221
     26 N         142.8445  142.2459  164.3659 N.ar    1  UNL1       -0.1267
     27 C         141.6052  142.3717  163.5302 C.ar    1  UNL1        0.1846
     28 C         140.2919  142.9394  163.9807 C.ar    1  UNL1        0.1171
     29 C         140.2467  144.2730  164.6657 C.ar    1  UNL1        0.0223
     30 C         138.9333  144.8407  165.1162 C.ar    1  UNL1        0.0032
     31 C         137.6652  144.0745  164.8815 C.ar    1  UNL1        0.0207
     32 C         137.7104  142.7409  164.1964 C.ar    1  UNL1        0.0989
     33 N         139.0238  142.1733  163.7460 N.ar    1  UNL1       -0.2407
@<TRIPOS>BOND
     1    22    23    1
     2    23    24   ar
     3    24    21    1
     4    21    20    1
     5    20    19    1
     6    19    18    1
     7    18     1    1
     8     1     2    1
     9     2     3    1
    10     4     3    1
    11     4     5    1
    12     5     6    1
    13     6     8    1
    14     8     9   ar
    15     9    10   ar
    16    10    11   ar
    17    11    14    1
    18    14    15    1
    19    14    16    1
    20    14    17    1
    21    11    12   ar
    22    12    13   ar
    23     4     7    1
    24    24    25   ar
    25    25    26   ar
    26    26    27   ar
    27    27    28    1
    28    28    29   ar
    29    29    30   ar
    30    30    31   ar
    31    31    32   ar
    32    32    33   ar
    33    27    23   ar
    34    33    28   ar
    35     7     1    1
    36     6     4    1
    37    13     8   ar
@<TRIPOS>MOLECULE
*****
 33 37 0 0 0
SMALL
GASTEIGER

@<TRIPOS>ATOM
      1 N         141.1924  143.6475  161.0958 N.3     1  UNL1       -0.2726
      2 C         141.2518  145.1371  161.2618 C.3     1  UNL1        0.0721
      3 C         140.6239  145.4819  162.5798 C.3     1  UNL1        0.0190
      4 C         140.1765  144.2054  163.2282 C.3     1  UNL1        0.0201
      5 C         139.6178  144.8450  164.4646 C.3     1  UNL1        0.0061
      6 C         139.5584  143.3555  164.2985 C.3     1  UNL1        0.0237
      7 C         140.5278  143.0717  162.3110 C.3     1  UNL1        0.0724
      8 C         139.1672  142.0047  164.8205 C.ar    1  UNL1       -0.0225
      9 C         139.6566  141.5490  166.1632 C.ar    1  UNL1       -0.0043
     10 C         139.2655  140.1983  166.6852 C.ar    1  UNL1        0.0035
     11 C         138.3849  139.3033  165.8646 C.ar    1  UNL1        0.0714
     12 C         137.8955  139.7590  164.5218 C.ar    1  UNL1        0.0035
     13 C         138.2867  141.1097  163.9998 C.ar    1  UNL1       -0.0043
     14 C         137.9938  137.9526  166.3866 C.3     1  UNL1        0.4186
     15 F         137.6026  136.6018  166.9086 F       1  UNL1       -0.1659
     16 F         137.3992  138.5954  167.6044 F       1  UNL1       -0.1659
     17 F         138.5883  137.3097  165.1687 F       1  UNL1       -0.1659
     18 C         141.7071  142.8701  159.9207 C.3     1  UNL1        0.0730
     19 C         143.1835  142.7751  159.6729 C.3     1  UNL1        0.0294
     20 C         143.8279  141.4335  159.4862 C.3     1  UNL1        0.0666
     21 S         143.7184  140.3928  160.5609 S.3     1  UNL1       -0.0756
     22 C         141.8430  139.8594  163.1777 C.3     1  UNL1        0.1340
     23 N         143.2019  140.4945  163.1815 N.ar    1  UNL1       -0.2872
     24 C         144.0639  140.7397  161.9787 C.ar    1  UNL1        0.1933
     25 N         145.3321  141.3928  162.4427 N.ar    1  UNL1       -0.1221
     26 N         145.2539  141.5512  163.9322 N.ar    1  UNL1       -0.1267
     27 C         143.9373  140.9961  164.3889 C.ar    1  UNL1        0.1846
     28 C         143.4430  140.9504  165.8044 C.ar    1  UNL1        0.1171
     29 C         143.2598  142.2235  166.5762 C.ar    1  UNL1        0.0223
     30 C         142.7654  142.1779  167.9917 C.ar    1  UNL1        0.0032
     31 C         142.4544  140.8591  168.6353 C.ar    1  UNL1        0.0207
     32 C         142.6377  139.5860  167.8635 C.ar    1  UNL1        0.0989
     33 N         143.1320  139.6318  166.4480 N.ar    1  UNL1       -0.2407
@<TRIPOS>BOND
     1    22    23    1
     2    23    24   ar
     3    24    21    1
     4    21    20    1
     5    20    19    1
     6    19    18    1
     7    18     1    1
     8     1     2    1
     9     2     3    1
    10     4     3    1
    11     4     5    1
    12     5     6    1
    13     6     8    1
    14     8     9   ar
    15     9    10   ar
    16    10    11   ar
    17    11    14    1
    18    14    15    1
    19    14    16    1
    20    14    17    1
    21    11    12   ar
    22    12    13   ar
    23     4     7    1
    24    24    25   ar
    25    25    26   ar
    26    26    27   ar
    27    27    28    1
    28    28    29   ar
    29    29    30   ar
    30    30    31   ar
    31    31    32   ar
    32    32    33   ar
    33    27    23   ar
    34    33    28   ar
    35     7     1    1
    36     6     4    1
    37    13     8   ar
@<TRIPOS>MOLECULE
*****
 33 37 0 0 0
SMALL
GASTEIGER

@<TRIPOS>ATOM
      1 N         143.2926  142.7631  162.2853 N.3     1  UNL1       -0.2726
      2 C         144.2788  141.7800  161.7278 C.3     1  UNL1        0.0721
      3 C         144.6238  140.8036  162.8129 C.3     1  UNL1        0.0190
      4 C         143.8509  141.1832  164.0411 C.3     1  UNL1        0.0201
      5 C         144.3807  140.0792  164.9073 C.3     1  UNL1        0.0061
      6 C         143.3945  141.0623  165.4649 C.3     1  UNL1        0.0237
      7 C         143.0281  142.3943  163.7150 C.3     1  UNL1        0.0724
      8 C         142.5616  141.5601  166.6088 C.ar    1  UNL1       -0.0225
      9 C         141.0648  141.5236  166.5182 C.ar    1  UNL1       -0.0043
     10 C         140.2319  142.0214  167.6621 C.ar    1  UNL1        0.0035
     11 C         140.8959  142.5556  168.8965 C.ar    1  UNL1        0.0714
     12 C         142.3927  142.5921  168.9870 C.ar    1  UNL1        0.0035
     13 C         143.2256  142.0943  167.8432 C.ar    1  UNL1       -0.0043
     14 C         140.0630  143.0534  170.0404 C.3     1  UNL1        0.4186
     15 F         139.2301  143.5512  171.1844 F       1  UNL1       -0.1659
     16 F         140.7661  144.3769  169.9764 F       1  UNL1       -0.1659
     17 F         139.3599  141.7300  170.1044 F       1  UNL1       -0.1659
     18 C         142.6786  143.9132  161.5435 C.3     1  UNL1        0.0730
     19 C         142.2026  143.7275  160.1332 C.3     1  UNL1        0.0294
     20 C         140.8187  144.1576  159.7458 C.3     1  UNL1        0.0666
     21 S         139.7445  143.1311  159.5401 S.3     1  UNL1       -0.0756
     22 C         140.6825  140.5102  161.2431 C.3     1  UNL1        0.1340
     23 N         139.4614  141.3411  161.5049 N.ar    1  UNL1       -0.2872
     24 C         139.0302  142.5458  160.7221 C.ar    1  UNL1        0.1933
     25 N         137.7594  143.0624  161.3288 N.ar    1  UNL1       -0.1221
     26 N         137.4051  142.1770  162.4866 N.ar    1  UNL1       -0.1267
     27 C         138.4570  141.1131  162.5955 C.ar    1  UNL1        0.1846
     28 C         138.4974  140.0143  163.6158 C.ar    1  UNL1        0.1171
     29 C         138.1116  140.2964  165.0376 C.ar    1  UNL1        0.0223
     30 C         138.1520  139.1976  166.0579 C.ar    1  UNL1        0.0032
     31 C         138.5782  137.8166  165.6562 C.ar    1  UNL1        0.0207
     32 C         138.9640  137.5345  164.2344 C.ar    1  UNL1        0.0989
     33 N         138.9236  138.6334  163.2142 N.ar    1  UNL1       -0.2407
@<TRIPOS>BOND
     1    22    23    1
     2    23    24   ar
     3    24    21    1
     4    21    20    1
     5    20    19    1
     6    19    18    1
     7    18     1    1
     8     1     2    1
     9     2     3    1
    10     4     3    1
    11     4     5    1
    12     5     6    1
    13     6     8    1
    14     8     9   ar
    15     9    10   ar
    16    10    11   ar
    17    11    14    1
    18    14    15    1
    19    14    16    1
    20    14    17    1
    21    11    12   ar
    22    12    13   ar
    23     4     7    1
    24    24    25   ar
    25    25    26   ar
    26    26    27   ar
    27    27    28    1
    28    28    29   ar
    29    29    30   ar
    30    30    31   ar
    31    31    32   ar
    32    32    33   ar
    33    27    23   ar
    34    33    28   ar
    35     7     1    1
    36     6     4    1
    37    13     8   ar
@<TRIPOS>MOLECULE
*****
 33 37 0 0 0
SMALL
GASTEIGER

@<TRIPOS>ATOM
      1 N         137.9387  141.4715  162.5565 N.3     1  UNL1       -0.2726
      2 C         137.6046  140.4118  161.5489 C.3     1  UNL1        0.0721
      3 C         138.0021  139.0843  162.1233 C.3     1  UNL1        0.0190
      4 C         138.5820  139.3236  163.4858 C.3     1  UNL1        0.0201
      5 C         138.8709  137.8832  163.7885 C.3     1  UNL1        0.0061
      6 C         139.2051  138.9430  164.7961 C.3     1  UNL1        0.0237
      7 C         138.5428  140.7990  163.7536 C.3     1  UNL1        0.0724
      8 C         139.7578  139.3350  166.1343 C.ar    1  UNL1       -0.0225
      9 C         138.8287  139.5901  167.2840 C.ar    1  UNL1       -0.0043
     10 C         139.3814  139.9822  168.6221 C.ar    1  UNL1        0.0035
     11 C         140.8632  140.1192  168.8107 C.ar    1  UNL1        0.0714
     12 C         141.7923  139.8640  167.6610 C.ar    1  UNL1        0.0035
     13 C         141.2396  139.4720  166.3228 C.ar    1  UNL1       -0.0043
     14 C         141.4158  140.5112  170.1489 C.3     1  UNL1        0.4186
     15 F         141.9686  140.9033  171.4871 F       1  UNL1       -0.1659
     16 F         140.3745  139.6699  170.8254 F       1  UNL1       -0.1659
     17 F         142.4572  141.3525  169.4723 F       1  UNL1       -0.1659
     18 C         137.7092  142.9450  162.3954 C.3     1  UNL1        0.0730
     19 C         138.2295  143.9023  163.4264 C.3     1  UNL1        0.0294
     20 C         138.9253  145.1604  162.9984 C.3     1  UNL1        0.0666
     21 S         140.4172  145.1769  162.8436 S.3     1  UNL1       -0.0756
     22 C         140.9297  142.7009  160.7804 C.3     1  UNL1        0.1340
     23 N         141.4503  142.8016  162.1836 N.ar    1  UNL1       -0.2872
     24 C         141.2148  143.9396  163.1319 C.ar    1  UNL1        0.1933
     25 N         141.9168  143.6233  164.4192 N.ar    1  UNL1       -0.1221
     26 N         142.5862  142.2897  164.2664 N.ar    1  UNL1       -0.1267
     27 C         142.2980  141.7818  162.8848 C.ar    1  UNL1        0.1846
     28 C         142.7738  140.4823  162.3059 C.ar    1  UNL1        0.1171
     29 C         142.2782  139.1838  162.8700 C.ar    1  UNL1        0.0223
     30 C         142.7540  137.8844  162.2912 C.ar    1  UNL1        0.0032
     31 C         143.7255  137.8835  161.1482 C.ar    1  UNL1        0.0207
     32 C         144.2211  139.1821  160.5841 C.ar    1  UNL1        0.0989
     33 N         143.7452  140.4815  161.1630 N.ar    1  UNL1       -0.2407
@<TRIPOS>BOND
     1    22    23    1
     2    23    24   ar
     3    24    21    1
     4    21    20    1
     5    20    19    1
     6    19    18    1
     7    18     1    1
     8     1     2    1
     9     2     3    1
    10     4     3    1
    11     4     5    1
    12     5     6    1
    13     6     8    1
    14     8     9   ar
    15     9    10   ar
    16    10    11   ar
    17    11    14    1
    18    14    15    1
    19    14    16    1
    20    14    17    1
    21    11    12   ar
    22    12    13   ar
    23     4     7    1
    24    24    25   ar
    25    25    26   ar
    26    26    27   ar
    27    27    28    1
    28    28    29   ar
    29    29    30   ar
    30    30    31   ar
    31    31    32   ar
    32    32    33   ar
    33    27    23   ar
    34    33    28   ar
    35     7     1    1
    36     6     4    1
    37    13     8   ar
@<TRIPOS>MOLECULE
*****
 33 37 0 0 0
SMALL
GASTEIGER

@<TRIPOS>ATOM
      1 N         137.9964  141.5936  163.3553 N.3     1  UNL1       -0.2726
      2 C         137.5581  142.8852  162.7310 C.3     1  UNL1        0.0721
      3 C         138.1580  144.0095  163.5222 C.3     1  UNL1        0.0190
      4 C         138.9671  143.4128  164.6355 C.3     1  UNL1        0.0201
      5 C         139.4176  144.7189  165.2195 C.3     1  UNL1        0.0061
      6 C         139.8559  143.4273  165.8437 C.3     1  UNL1        0.0237
      7 C         138.8673  141.9197  164.5323 C.3     1  UNL1        0.0724
      8 C         140.6221  142.6901  166.9017 C.ar    1  UNL1       -0.0225
      9 C         141.7960  141.8374  166.5207 C.ar    1  UNL1       -0.0043
     10 C         142.5622  141.1001  167.5787 C.ar    1  UNL1        0.0035
     11 C         142.1545  141.2155  169.0176 C.ar    1  UNL1        0.0714
     12 C         140.9807  142.0681  169.3986 C.ar    1  UNL1        0.0035
     13 C         140.2145  142.8054  168.3406 C.ar    1  UNL1       -0.0043
     14 C         142.9207  140.4782  170.0756 C.3     1  UNL1        0.4186
     15 F         143.6870  139.7409  171.1336 F       1  UNL1       -0.1659
     16 F         141.8519  139.4266  170.1169 F       1  UNL1       -0.1659
     17 F         143.9896  141.5298  170.0343 F       1  UNL1       -0.1659
     18 C         137.6285  140.2175  162.8851 C.3     1  UNL1        0.0730
     19 C         137.8321  139.8364  161.4487 C.3     1  UNL1        0.0294
     20 C         138.5355  138.5569  161.1046 C.3     1  UNL1        0.0666
     21 S         139.9528  138.5886  160.6146 S.3     1  UNL1       -0.0756
     22 C         141.2716  139.5668  163.4348 C.3     1  UNL1        0.1340
     23 N         141.3954  140.2667  162.1139 N.ar    1  UNL1       -0.2872
     24 C         140.7892  139.8171  160.8176 C.ar    1  UNL1        0.1933
     25 N         141.1663  140.8116  159.7599 N.ar    1  UNL1       -0.1221
     26 N         142.0055  141.8759  160.4025 N.ar    1  UNL1       -0.1267
     27 C         142.1471  141.5392  161.8573 C.ar    1  UNL1        0.1846
     28 C         142.9070  142.3352  162.8766 C.ar    1  UNL1        0.1171
     29 C         142.4522  143.7177  163.2398 C.ar    1  UNL1        0.0223
     30 C         143.2121  144.5137  164.2591 C.ar    1  UNL1        0.0032
     31 C         144.4268  143.9271  164.9152 C.ar    1  UNL1        0.0207
     32 C         144.8816  142.5446  164.5521 C.ar    1  UNL1        0.0989
     33 N         144.1217  141.7486  163.5327 N.ar    1  UNL1       -0.2407
@<TRIPOS>BOND
     1    22    23    1
     2    23    24   ar
     3    24    21    1
     4    21    20    1
     5    20    19    1
     6    19    18    1
     7    18     1    1
     8     1     2    1
     9     2     3    1
    10     4     3    1
    11     4     5    1
    12     5     6    1
    13     6     8    1
    14     8     9   ar
    15     9    10   ar
    16    10    11   ar
    17    11    14    1
    18    14    15    1
    19    14    16    1
    20    14    17    1
    21    11    12   ar
    22    12    13   ar
    23     4     7    1
    24    24    25   ar
    25    25    26   ar
    26    26    27   ar
    27    27    28    1
    28    28    29   ar
    29    29    30   ar
    30    30    31   ar
    31    31    32   ar
    32    32    33   ar
    33    27    23   ar
    34    33    28   ar
    35     7     1    1
    36     6     4    1
    37    13     8   ar
@<TRIPOS>MOLECULE
*****
 33 37 0 0 0
SMALL
GASTEIGER

@<TRIPOS>ATOM
      1 N         141.5488  138.1025  163.4466 N.3     1  UNL1       -0.2726
      2 C         142.7968  138.0474  162.6163 C.3     1  UNL1        0.0721
      3 C         143.7729  139.0368  163.1804 C.3     1  UNL1        0.0190
      4 C         143.1281  139.7034  164.3594 C.3     1  UNL1        0.0201
      5 C         144.2898  140.5923  164.6916 C.3     1  UNL1        0.0061
      6 C         143.0418  140.6474  165.5219 C.3     1  UNL1        0.0237
      7 C         141.7536  139.1259  164.5239 C.3     1  UNL1        0.0724
      8 C         142.2714  141.2242  166.6725 C.ar    1  UNL1       -0.0225
      9 C         142.5366  140.7440  168.0686 C.ar    1  UNL1       -0.0043
     10 C         141.7662  141.3208  169.2192 C.ar    1  UNL1        0.0035
     11 C         140.7306  142.3778  168.9736 C.ar    1  UNL1        0.0714
     12 C         140.4654  142.8580  167.5775 C.ar    1  UNL1        0.0035
     13 C         141.2358  142.2812  166.4269 C.ar    1  UNL1       -0.0043
     14 C         139.9602  142.9546  170.1241 C.3     1  UNL1        0.4186
     15 F         139.1898  143.5314  171.2747 F       1  UNL1       -0.1659
     16 F         140.7860  144.2046  170.0504 F       1  UNL1       -0.1659
     17 F         139.1344  141.7046  170.1979 F       1  UNL1       -0.1659
     18 C         140.3130  137.2787  163.2366 C.3     1  UNL1        0.0730
     19 C         138.9608  137.9247  163.3026 C.3     1  UNL1        0.0294
     20 C         138.1651  138.1291  162.0475 C.3     1  UNL1        0.0666
     21 S         138.0973  139.4877  161.4154 S.3     1  UNL1       -0.0756
     22 C         141.0812  140.7425  161.0011 C.3     1  UNL1        0.1340
     23 N         140.0323  141.2547  161.9431 N.ar    1  UNL1       -0.2872
     24 C         138.6608  140.6779  162.1336 C.ar    1  UNL1        0.1933
     25 N         137.9516  141.5004  163.1683 N.ar    1  UNL1       -0.1221
     26 N         138.8849  142.5854  163.6174 N.ar    1  UNL1       -0.1267
     27 C         140.1708  142.4337  162.8602 C.ar    1  UNL1        0.1846
     28 C         141.3825  143.3074  162.9962 C.ar    1  UNL1        0.1171
     29 C         142.6925  142.8693  162.4114 C.ar    1  UNL1        0.0223
     30 C         143.9042  143.7430  162.5474 C.ar    1  UNL1        0.0032
     31 C         143.8058  145.0548  163.2683 C.ar    1  UNL1        0.0207
     32 C         142.4958  145.4929  163.8531 C.ar    1  UNL1        0.0989
     33 N         141.2841  144.6191  163.7170 N.ar    1  UNL1       -0.2407
@<TRIPOS>BOND
     1    22    23    1
     2    23    24   ar
     3    24    21    1
     4    21    20    1
     5    20    19    1
     6    19    18    1
     7    18     1    1
     8     1     2    1
     9     2     3    1
    10     4     3    1
    11     4     5    1
    12     5     6    1
    13     6     8    1
    14     8     9   ar
    15     9    10   ar
    16    10    11   ar
    17    11    14    1
    18    14    15    1
    19    14    16    1
    20    14    17    1
    21    11    12   ar
    22    12    13   ar
    23     4     7    1
    24    24    25   ar
    25    25    26   ar
    26    26    27   ar
    27    27    28    1
    28    28    29   ar
    29    29    30   ar
    30    30    31   ar
    31    31    32   ar
    32    32    33   ar
    33    27    23   ar
    34    33    28   ar
    35     7     1    1
    36     6     4    1
    37    13     8   ar
@<TRIPOS>MOLECULE
*****
 33 37 0 0 0
SMALL
GASTEIGER

@<TRIPOS>ATOM
      1 N         138.1805  141.6118  162.9915 N.3     1  UNL1       -0.2726
      2 C         137.7985  140.3052  162.3616 C.3     1  UNL1        0.0721
      3 C         138.3750  139.2014  163.1978 C.3     1  UNL1        0.0190
      4 C         139.1134  139.8258  164.3445 C.3     1  UNL1        0.0201
      5 C         139.5549  138.5351  164.9682 C.3     1  UNL1        0.0061
      6 C         139.9369  139.8417  165.5981 C.3     1  UNL1        0.0237
      7 C         138.9931  141.3156  164.2170 C.3     1  UNL1        0.0724
      8 C         140.6329  140.6053  166.6855 C.ar    1  UNL1       -0.0225
      9 C         139.9845  140.7552  168.0298 C.ar    1  UNL1       -0.0043
     10 C         140.6805  141.5188  169.1172 C.ar    1  UNL1        0.0035
     11 C         142.0249  142.1324  168.8604 C.ar    1  UNL1        0.0714
     12 C         142.6734  141.9824  167.5161 C.ar    1  UNL1        0.0035
     13 C         141.9774  141.2188  166.4287 C.ar    1  UNL1       -0.0043
     14 C         142.7209  142.8959  169.9478 C.3     1  UNL1        0.4186
     15 F         143.4169  143.6596  171.0353 F       1  UNL1       -0.1659
     16 F         143.8534  141.9130  169.9132 F       1  UNL1       -0.1659
     17 F         141.5884  143.8789  169.9825 F       1  UNL1       -0.1659
     18 C         137.8141  142.9753  162.4849 C.3     1  UNL1        0.0730
     19 C         138.1290  144.1902  163.3063 C.3     1  UNL1        0.0294
     20 C         138.9364  145.3073  162.7144 C.3     1  UNL1        0.0666
     21 S         139.8367  145.0436  161.5441 S.3     1  UNL1       -0.0756
     22 C         141.8014  143.9365  163.9029 C.3     1  UNL1        0.1340
     23 N         141.5557  143.2770  162.5783 N.ar    1  UNL1       -0.2872
     24 C         140.6526  143.7859  161.4940 C.ar    1  UNL1        0.1933
     25 N         140.7087  142.8162  160.3509 N.ar    1  UNL1       -0.1221
     26 N         141.6464  141.7081  160.7287 N.ar    1  UNL1       -0.1267
     27 C         142.1699  141.9928  162.1053 C.ar    1  UNL1        0.1846
     28 C         143.1377  141.1427  162.8739 C.ar    1  UNL1        0.1171
     29 C         142.7713  139.7357  163.2428 C.ar    1  UNL1        0.0223
     30 C         143.7390  138.8856  164.0114 C.ar    1  UNL1        0.0032
     31 C         145.0733  139.4426  164.4110 C.ar    1  UNL1        0.0207
     32 C         145.4397  140.8496  164.0421 C.ar    1  UNL1        0.0989
     33 N         144.4719  141.6996  163.2735 N.ar    1  UNL1       -0.2407
@<TRIPOS>BOND
     1    22    23    1
     2    23    24   ar
     3    24    21    1
     4    21    20    1
     5    20    19    1
     6    19    18    1
     7    18     1    1
     8     1     2    1
     9     2     3    1
    10     4     3    1
    11     4     5    1
    12     5     6    1
    13     6     8    1
    14     8     9   ar
    15     9    10   ar
    16    10    11   ar
    17    11    14    1
    18    14    15    1
    19    14    16    1
    20    14    17    1
    21    11    12   ar
    22    12    13   ar
    23     4     7    1
    24    24    25   ar
    25    25    26   ar
    26    26    27   ar
    27    27    28    1
    28    28    29   ar
    29    29    30   ar
    30    30    31   ar
    31    31    32   ar
    32    32    33   ar
    33    27    23   ar
    34    33    28   ar
    35     7     1    1
    36     6     4    1
    37    13     8   ar
