@<TRIPOS>MOLECULE
*****
 37 40 0 0 0
SMALL
GASTEIGER

@<TRIPOS>ATOM
      1 C         144.2906  139.6233  163.7107 C.3     1  UNL1        0.0784
      2 C         143.6525  139.2238  162.4133 C.ar    1  UNL1       -0.0118
      3 C         144.2447  139.6824  161.1137 C.ar    1  UNL1       -0.0034
      4 C         143.6066  139.2829  159.8164 C.ar    1  UNL1       -0.0003
      5 C         142.3763  138.4247  159.8186 C.ar    1  UNL1       -0.0000
      6 C         141.7841  137.9661  161.1182 C.ar    1  UNL1       -0.0003
      7 C         142.4222  138.3656  162.4155 C.ar    1  UNL1       -0.0034
      8 C         141.7382  138.0252  158.5212 C.ar    1  UNL1       -0.0000
      9 C         140.3670  138.5250  158.1745 C.ar    1  UNL1       -0.0001
     10 C         139.7289  138.1254  156.8771 C.ar    1  UNL1        0.0039
     11 C         140.4620  137.2262  155.9263 C.ar    1  UNL1        0.0714
     12 C         141.8332  136.7265  156.2730 C.ar    1  UNL1        0.0039
     13 C         142.4713  137.1260  157.5704 C.ar    1  UNL1       -0.0001
     14 C         139.8240  136.8267  154.6290 C.3     1  UNL1        0.4186
     15 F         139.1860  136.4272  153.3316 F       1  UNL1       -0.1659
     16 F         138.4808  136.8049  155.2962 F       1  UNL1       -0.1659
     17 F         141.1672  136.8485  153.9617 F       1  UNL1       -0.1659
     18 S         143.9362  138.8985  164.9753 S.3     1  UNL1       -0.1097
     19 C         142.0726  139.3648  169.8033 C.3     1  UNL1        0.0342
     20 C         142.0247  139.7363  168.3509 C.ar    1  UNL1        0.0126
     21 C         143.0044  139.1317  167.3893 C.ar    1  UNL1        0.0049
     22 C         142.9564  139.5032  165.9369 C.ar    1  UNL1        0.0254
     23 C         141.9287  140.4793  165.4459 C.ar    1  UNL1        0.0093
     24 C         140.9490  141.0838  166.4074 C.ar    1  UNL1        0.0371
     25 C         140.9970  140.7124  167.8599 C.ar    1  UNL1        0.1351
     26 O         140.0172  141.3170  168.8215 O.3     1  UNL1       -0.4697
     27 C         140.2824  142.6707  169.4105 C.3     1  UNL1        0.2468
     28 C         141.0720  142.7947  170.6800 C.2     1  UNL1        0.0940
     29 O         142.3430  143.5910  170.6979 O.co2   1  UNL1       -0.5454
     30 O         140.5905  142.1223  171.9313 O.co2   1  UNL1       -0.5454
     31 C         145.2831  140.7475  163.7436 C.3     1  UNL1        0.0419
     32 C         144.8064  142.1661  163.8440 C.ar    1  UNL1       -0.0210
     33 C         144.7057  142.8304  165.1851 C.ar    1  UNL1       -0.0042
     34 C         144.2290  144.2491  165.2855 C.ar    1  UNL1       -0.0003
     35 C         143.8529  145.0035  164.0448 C.ar    1  UNL1       -0.0000
     36 C         143.9536  144.3392  162.7036 C.ar    1  UNL1       -0.0003
     37 C         144.4303  142.9206  162.6032 C.ar    1  UNL1       -0.0042
@<TRIPOS>UNITY_ATOM_ATTR
29 1
charge -1
@<TRIPOS>BOND
     1    19    20    1
     2    20    21   ar
     3    21    22   ar
     4    22    18    1
     5    18     1    1
     6     1    31    1
     7    31    32    1
     8    32    33   ar
     9    33    34   ar
    10    34    35   ar
    11    35    36   ar
    12    36    37   ar
    13     1     2    1
    14     2     3   ar
    15     3     4   ar
    16     4     5   ar
    17     5     8    1
    18     8     9   ar
    19     9    10   ar
    20    10    11   ar
    21    11    14    1
    22    14    15    1
    23    14    16    1
    24    14    17    1
    25    11    12   ar
    26    12    13   ar
    27     5     6   ar
    28     6     7   ar
    29    22    23   ar
    30    23    24   ar
    31    24    25   ar
    32    25    26    1
    33    26    27    1
    34    27    28    1
    35    28    29   ar
    36    28    30   ar
    37    25    20   ar
    38    37    32   ar
    39     7     2   ar
    40    13     8   ar
@<TRIPOS>MOLECULE
*****
 37 40 0 0 0
SMALL
GASTEIGER

@<TRIPOS>ATOM
      1 C         140.2122  140.3987  162.1368 C.3     1  UNL1        0.0784
      2 C         141.2966  140.6530  161.1320 C.ar    1  UNL1       -0.0118
      3 C         141.0031  140.5353  159.6657 C.ar    1  UNL1       -0.0034
      4 C         142.0874  140.7897  158.6611 C.ar    1  UNL1       -0.0003
      5 C         143.4653  141.1616  159.1226 C.ar    1  UNL1       -0.0000
      6 C         143.7588  141.2793  160.5889 C.ar    1  UNL1       -0.0003
      7 C         142.6745  141.0250  161.5936 C.ar    1  UNL1       -0.0034
      8 C         144.5497  141.4160  158.1179 C.ar    1  UNL1       -0.0000
      9 C         144.6627  140.5473  156.9003 C.ar    1  UNL1       -0.0001
     10 C         145.7471  140.8016  155.8955 C.ar    1  UNL1        0.0039
     11 C         146.7184  141.9246  156.1084 C.ar    1  UNL1        0.0714
     12 C         146.6054  142.7933  157.3261 C.ar    1  UNL1        0.0039
     13 C         145.5210  142.5390  158.3307 C.ar    1  UNL1       -0.0001
     14 C         147.8028  142.1790  155.1037 C.3     1  UNL1        0.4186
     15 F         148.8871  142.4333  154.0990 F       1  UNL1       -0.1659
     16 F         146.7714  142.5864  154.0937 F       1  UNL1       -0.1659
     17 F         148.8342  141.7716  156.1137 F       1  UNL1       -0.1659
     18 S         140.3135  139.2283  163.0695 S.3     1  UNL1       -0.1097
     19 C         137.3596  138.2871  167.2395 C.3     1  UNL1        0.0342
     20 C         138.5592  138.9385  166.6175 C.ar    1  UNL1        0.0126
     21 C         138.8366  138.7577  165.1546 C.ar    1  UNL1        0.0049
     22 C         140.0361  139.4091  164.5326 C.ar    1  UNL1        0.0254
     23 C         140.9582  140.2412  165.3736 C.ar    1  UNL1        0.0093
     24 C         140.6808  140.4219  166.8365 C.ar    1  UNL1        0.0371
     25 C         139.4813  139.7706  167.4585 C.ar    1  UNL1        0.1351
     26 O         139.2039  139.9514  168.9216 O.3     1  UNL1       -0.4697
     27 C         139.6252  141.2132  169.6145 C.3     1  UNL1        0.2468
     28 C         140.6501  141.1617  170.7086 C.2     1  UNL1        0.0940
     29 O         140.5307  142.0761  171.8917 O.co2   1  UNL1       -0.5454
     30 O         141.7943  140.1959  170.6196 O.co2   1  UNL1       -0.5454
     31 C         139.0266  141.3147  162.2088 C.3     1  UNL1        0.0419
     32 C         139.0366  142.4818  163.1509 C.ar    1  UNL1       -0.0210
     33 C         140.2981  143.2658  163.3603 C.ar    1  UNL1       -0.0042
     34 C         140.3082  144.4330  164.3025 C.ar    1  UNL1       -0.0003
     35 C         139.0567  144.8161  165.0353 C.ar    1  UNL1       -0.0000
     36 C         137.7951  144.0320  164.8259 C.ar    1  UNL1       -0.0003
     37 C         137.7851  142.8649  163.8838 C.ar    1  UNL1       -0.0042
@<TRIPOS>UNITY_ATOM_ATTR
29 1
charge -1
@<TRIPOS>BOND
     1    19    20    1
     2    20    21   ar
     3    21    22   ar
     4    22    18    1
     5    18     1    1
     6     1    31    1
     7    31    32    1
     8    32    33   ar
     9    33    34   ar
    10    34    35   ar
    11    35    36   ar
    12    36    37   ar
    13     1     2    1
    14     2     3   ar
    15     3     4   ar
    16     4     5   ar
    17     5     8    1
    18     8     9   ar
    19     9    10   ar
    20    10    11   ar
    21    11    14    1
    22    14    15    1
    23    14    16    1
    24    14    17    1
    25    11    12   ar
    26    12    13   ar
    27     5     6   ar
    28     6     7   ar
    29    22    23   ar
    30    23    24   ar
    31    24    25   ar
    32    25    26    1
    33    26    27    1
    34    27    28    1
    35    28    29   ar
    36    28    30   ar
    37    25    20   ar
    38    37    32   ar
    39     7     2   ar
    40    13     8   ar
@<TRIPOS>MOLECULE
*****
 37 40 0 0 0
SMALL
GASTEIGER

@<TRIPOS>ATOM
      1 C         142.2552  142.1675  162.4897 C.3     1  UNL1        0.0784
      2 C         142.0866  141.1650  161.3866 C.ar    1  UNL1       -0.0118
      3 C         141.7900  141.6281  159.9911 C.ar    1  UNL1       -0.0034
      4 C         141.6215  140.6256  158.8882 C.ar    1  UNL1       -0.0003
      5 C         141.7496  139.1600  159.1808 C.ar    1  UNL1       -0.0000
      6 C         142.0462  138.6969  160.5763 C.ar    1  UNL1       -0.0003
      7 C         142.2147  139.6994  161.6792 C.ar    1  UNL1       -0.0034
      8 C         141.5810  138.1574  158.0777 C.ar    1  UNL1       -0.0000
      9 C         140.3048  138.1157  157.2907 C.ar    1  UNL1       -0.0001
     10 C         140.1363  137.1132  156.1877 C.ar    1  UNL1        0.0039
     11 C         141.2440  136.1524  155.8717 C.ar    1  UNL1        0.0714
     12 C         142.5203  136.1942  156.6588 C.ar    1  UNL1        0.0039
     13 C         142.6888  137.1967  157.7618 C.ar    1  UNL1       -0.0001
     14 C         141.0755  135.1499  154.7688 C.3     1  UNL1        0.4186
     15 F         140.9071  134.1474  153.6658 F       1  UNL1       -0.1659
     16 F         141.8477  134.1418  155.5671 F       1  UNL1       -0.1659
     17 F         140.3034  136.1581  153.9704 F       1  UNL1       -0.1659
     18 S         143.1498  141.8589  163.6534 S.3     1  UNL1       -0.1097
     19 C         143.2853  142.4086  168.8187 C.3     1  UNL1        0.0342
     20 C         142.6245  141.8639  167.5871 C.ar    1  UNL1        0.0126
     21 C         143.2175  142.1337  166.2361 C.ar    1  UNL1        0.0049
     22 C         142.5567  141.5890  165.0046 C.ar    1  UNL1        0.0254
     23 C         141.3028  140.7746  165.1241 C.ar    1  UNL1        0.0093
     24 C         140.7097  140.5048  166.4752 C.ar    1  UNL1        0.0371
     25 C         141.3706  141.0495  167.7067 C.ar    1  UNL1        0.1351
     26 O         140.7774  140.7796  169.0578 O.3     1  UNL1       -0.4697
     27 C         139.7075  141.6799  169.6006 C.3     1  UNL1        0.2468
     28 C         140.0464  142.7038  170.6431 C.2     1  UNL1        0.0940
     29 O         140.4384  142.2672  172.0236 O.co2   1  UNL1       -0.5454
     30 O         139.9934  144.1643  170.3051 O.co2   1  UNL1       -0.5454
     31 C         141.5291  143.4786  162.4289 C.3     1  UNL1        0.0419
     32 C         140.2493  143.6632  163.1893 C.ar    1  UNL1       -0.0210
     33 C         139.0191  142.9079  162.7817 C.ar    1  UNL1       -0.0042
     34 C         137.7394  143.0925  163.5421 C.ar    1  UNL1       -0.0003
     35 C         137.6898  144.0323  164.7101 C.ar    1  UNL1       -0.0000
     36 C         138.9200  144.7876  165.1177 C.ar    1  UNL1       -0.0003
     37 C         140.1998  144.6030  164.3574 C.ar    1  UNL1       -0.0042
@<TRIPOS>UNITY_ATOM_ATTR
29 1
charge -1
@<TRIPOS>BOND
     1    19    20    1
     2    20    21   ar
     3    21    22   ar
     4    22    18    1
     5    18     1    1
     6     1    31    1
     7    31    32    1
     8    32    33   ar
     9    33    34   ar
    10    34    35   ar
    11    35    36   ar
    12    36    37   ar
    13     1     2    1
    14     2     3   ar
    15     3     4   ar
    16     4     5   ar
    17     5     8    1
    18     8     9   ar
    19     9    10   ar
    20    10    11   ar
    21    11    14    1
    22    14    15    1
    23    14    16    1
    24    14    17    1
    25    11    12   ar
    26    12    13   ar
    27     5     6   ar
    28     6     7   ar
    29    22    23   ar
    30    23    24   ar
    31    24    25   ar
    32    25    26    1
    33    26    27    1
    34    27    28    1
    35    28    29   ar
    36    28    30   ar
    37    25    20   ar
    38    37    32   ar
    39     7     2   ar
    40    13     8   ar
@<TRIPOS>MOLECULE
*****
 37 40 0 0 0
SMALL
GASTEIGER

@<TRIPOS>ATOM
      1 C         142.9589  140.3707  165.3838 C.3     1  UNL1        0.0784
      2 C         142.6380  139.9060  163.9941 C.ar    1  UNL1       -0.0118
      3 C         143.7459  139.6228  163.0234 C.ar    1  UNL1       -0.0034
      4 C         143.4250  139.1582  161.6338 C.ar    1  UNL1       -0.0003
      5 C         141.9961  138.9766  161.2149 C.ar    1  UNL1       -0.0000
      6 C         140.8882  139.2598  162.1856 C.ar    1  UNL1       -0.0003
      7 C         141.2091  139.7244  163.5752 C.ar    1  UNL1       -0.0034
      8 C         141.6752  138.5119  159.8252 C.ar    1  UNL1       -0.0000
      9 C         140.2726  138.6175  159.3043 C.ar    1  UNL1       -0.0001
     10 C         139.9517  138.1528  157.9146 C.ar    1  UNL1        0.0039
     11 C         141.0335  137.5825  157.0459 C.ar    1  UNL1        0.0714
     12 C         142.4362  137.4770  157.5670 C.ar    1  UNL1        0.0039
     13 C         142.7570  137.9417  158.9566 C.ar    1  UNL1       -0.0001
     14 C         140.7127  137.1179  155.6563 C.3     1  UNL1        0.4186
     15 F         140.3918  136.6532  154.2667 F       1  UNL1       -0.1659
     16 F         140.3874  138.5275  155.2600 F       1  UNL1       -0.1659
     17 F         141.0379  135.7082  156.0526 F       1  UNL1       -0.1659
     18 S         143.3601  141.7959  165.6241 S.3     1  UNL1       -0.1097
     19 C         139.1591  144.7258  164.7486 C.3     1  UNL1        0.0342
     20 C         140.5815  144.3678  164.4348 C.ar    1  UNL1        0.0126
     21 C         141.2596  143.2609  165.1863 C.ar    1  UNL1        0.0049
     22 C         142.6820  142.9029  164.8725 C.ar    1  UNL1        0.0254
     23 C         143.4264  143.6518  163.8072 C.ar    1  UNL1        0.0093
     24 C         142.7483  144.7587  163.0556 C.ar    1  UNL1        0.0371
     25 C         141.3258  145.1167  163.3695 C.ar    1  UNL1        0.1351
     26 O         140.6477  146.2237  162.6179 O.3     1  UNL1       -0.4697
     27 C         139.7533  145.9039  161.4570 C.3     1  UNL1        0.2468
     28 C         140.2887  145.1306  160.2884 C.2     1  UNL1        0.0940
     29 O         141.6654  145.4176  159.7665 O.co2   1  UNL1       -0.5454
     30 O         139.4474  144.0704  159.6418 O.co2   1  UNL1       -0.5454
     31 C         142.8785  139.4102  166.5331 C.3     1  UNL1        0.0419
     32 C         141.9058  139.6549  167.6485 C.ar    1  UNL1       -0.0210
     33 C         142.3614  139.5632  169.0746 C.ar    1  UNL1       -0.0042
     34 C         141.3888  139.8079  170.1900 C.ar    1  UNL1       -0.0003
     35 C         139.9604  140.1444  169.8792 C.ar    1  UNL1       -0.0000
     36 C         139.5047  140.2361  168.4530 C.ar    1  UNL1       -0.0003
     37 C         140.4774  139.9914  167.3376 C.ar    1  UNL1       -0.0042
@<TRIPOS>UNITY_ATOM_ATTR
29 1
charge -1
@<TRIPOS>BOND
     1    19    20    1
     2    20    21   ar
     3    21    22   ar
     4    22    18    1
     5    18     1    1
     6     1    31    1
     7    31    32    1
     8    32    33   ar
     9    33    34   ar
    10    34    35   ar
    11    35    36   ar
    12    36    37   ar
    13     1     2    1
    14     2     3   ar
    15     3     4   ar
    16     4     5   ar
    17     5     8    1
    18     8     9   ar
    19     9    10   ar
    20    10    11   ar
    21    11    14    1
    22    14    15    1
    23    14    16    1
    24    14    17    1
    25    11    12   ar
    26    12    13   ar
    27     5     6   ar
    28     6     7   ar
    29    22    23   ar
    30    23    24   ar
    31    24    25   ar
    32    25    26    1
    33    26    27    1
    34    27    28    1
    35    28    29   ar
    36    28    30   ar
    37    25    20   ar
    38    37    32   ar
    39     7     2   ar
    40    13     8   ar
@<TRIPOS>MOLECULE
*****
 37 40 0 0 0
SMALL
GASTEIGER

@<TRIPOS>ATOM
      1 C         144.3486  139.8030  163.2247 C.3     1  UNL1        0.0784
      2 C         143.7153  139.3471  161.9436 C.ar    1  UNL1       -0.0118
      3 C         142.7680  138.1841  161.9475 C.ar    1  UNL1       -0.0034
      4 C         142.1348  137.7284  160.6664 C.ar    1  UNL1       -0.0003
      5 C         142.4488  138.4356  159.3814 C.ar    1  UNL1       -0.0000
      6 C         143.3960  139.5987  159.3775 C.ar    1  UNL1       -0.0003
      7 C         144.0293  140.0544  160.6586 C.ar    1  UNL1       -0.0034
      8 C         141.8155  137.9798  158.1002 C.ar    1  UNL1       -0.0000
      9 C         142.6535  137.3312  157.0387 C.ar    1  UNL1       -0.0001
     10 C         142.0202  136.8754  155.7575 C.ar    1  UNL1        0.0039
     11 C         140.5489  137.0683  155.5380 C.ar    1  UNL1        0.0714
     12 C         139.7109  137.7170  156.5997 C.ar    1  UNL1        0.0039
     13 C         140.3442  138.1727  157.8808 C.ar    1  UNL1       -0.0001
     14 C         139.9156  136.6125  154.2570 C.3     1  UNL1        0.4186
     15 F         139.2823  136.1567  152.9759 F       1  UNL1       -0.1659
     16 F         138.7811  137.5686  154.4776 F       1  UNL1       -0.1659
     17 F         141.0501  135.6564  154.0363 F       1  UNL1       -0.1659
     18 S         144.0332  139.0968  164.5100 S.3     1  UNL1       -0.1097
     19 C         142.2547  139.5669  169.3696 C.3     1  UNL1        0.0342
     20 C         142.1915  139.9492  167.9206 C.ar    1  UNL1        0.0126
     21 C         143.1439  139.3319  166.9398 C.ar    1  UNL1        0.0049
     22 C         143.0807  139.7142  165.4907 C.ar    1  UNL1        0.0254
     23 C         142.0651  140.7137  165.0224 C.ar    1  UNL1        0.0093
     24 C         141.1127  141.3310  166.0031 C.ar    1  UNL1        0.0371
     25 C         141.1759  140.9487  167.4522 C.ar    1  UNL1        0.1351
     26 O         140.2235  141.5661  168.4329 O.3     1  UNL1       -0.4697
     27 C         140.2359  143.0489  168.6588 C.3     1  UNL1        0.2468
     28 C         140.4595  143.5957  170.0376 C.2     1  UNL1        0.0940
     29 O         141.1469  142.7576  171.0744 O.co2   1  UNL1       -0.5454
     30 O         139.9957  144.9806  170.3795 O.co2   1  UNL1       -0.5454
     31 C         145.2972  140.9648  163.2206 C.3     1  UNL1        0.0419
     32 C         144.7954  142.3439  163.5309 C.ar    1  UNL1       -0.0210
     33 C         144.8521  142.8640  164.9367 C.ar    1  UNL1       -0.0042
     34 C         144.3503  144.2430  165.2471 C.ar    1  UNL1       -0.0003
     35 C         143.7917  145.1021  164.1516 C.ar    1  UNL1       -0.0000
     36 C         143.7350  144.5821  162.7457 C.ar    1  UNL1       -0.0003
     37 C         144.2368  143.2030  162.4354 C.ar    1  UNL1       -0.0042
@<TRIPOS>UNITY_ATOM_ATTR
29 1
charge -1
@<TRIPOS>BOND
     1    19    20    1
     2    20    21   ar
     3    21    22   ar
     4    22    18    1
     5    18     1    1
     6     1    31    1
     7    31    32    1
     8    32    33   ar
     9    33    34   ar
    10    34    35   ar
    11    35    36   ar
    12    36    37   ar
    13     1     2    1
    14     2     3   ar
    15     3     4   ar
    16     4     5   ar
    17     5     8    1
    18     8     9   ar
    19     9    10   ar
    20    10    11   ar
    21    11    14    1
    22    14    15    1
    23    14    16    1
    24    14    17    1
    25    11    12   ar
    26    12    13   ar
    27     5     6   ar
    28     6     7   ar
    29    22    23   ar
    30    23    24   ar
    31    24    25   ar
    32    25    26    1
    33    26    27    1
    34    27    28    1
    35    28    29   ar
    36    28    30   ar
    37    25    20   ar
    38    37    32   ar
    39     7     2   ar
    40    13     8   ar
@<TRIPOS>MOLECULE
*****
 37 40 0 0 0
SMALL
GASTEIGER

@<TRIPOS>ATOM
      1 C         141.2726  139.2891  162.4979 C.3     1  UNL1        0.0784
      2 C         141.0764  140.3799  161.4870 C.ar    1  UNL1       -0.0118
      3 C         142.0689  141.5003  161.3905 C.ar    1  UNL1       -0.0034
      4 C         141.8727  142.5910  160.3796 C.ar    1  UNL1       -0.0003
      5 C         140.6839  142.5613  159.4654 C.ar    1  UNL1       -0.0000
      6 C         139.6914  141.4408  159.5619 C.ar    1  UNL1       -0.0003
      7 C         139.8876  140.3501  160.5727 C.ar    1  UNL1       -0.0034
      8 C         140.4877  143.6521  158.4545 C.ar    1  UNL1       -0.0000
      9 C         141.3048  144.9072  158.5373 C.ar    1  UNL1       -0.0001
     10 C         141.1086  145.9980  157.5265 C.ar    1  UNL1        0.0039
     11 C         140.0953  145.8336  156.4328 C.ar    1  UNL1        0.0714
     12 C         139.2782  144.5783  156.3500 C.ar    1  UNL1        0.0039
     13 C         139.4744  143.4876  157.3608 C.ar    1  UNL1       -0.0001
     14 C         139.8991  146.9243  155.4220 C.3     1  UNL1        0.4186
     15 F         139.7028  148.0149  154.4111 F       1  UNL1       -0.1659
     16 F         138.6392  147.3440  156.1195 F       1  UNL1       -0.1659
     17 F         141.1589  146.5045  154.7245 F       1  UNL1       -0.1659
     18 S         142.5892  139.1475  163.2025 S.3     1  UNL1       -0.1097
     19 C         141.8485  142.1900  167.3492 C.3     1  UNL1        0.0342
     20 C         142.3043  140.8893  166.7571 C.ar    1  UNL1        0.0126
     21 C         142.2189  140.6687  165.2759 C.ar    1  UNL1        0.0049
     22 C         142.6747  139.3681  164.6838 C.ar    1  UNL1        0.0254
     23 C         143.2159  138.2880  165.5728 C.ar    1  UNL1        0.0093
     24 C         143.3013  138.5086  167.0540 C.ar    1  UNL1        0.0371
     25 C         142.8455  139.8093  167.6461 C.ar    1  UNL1        0.1351
     26 O         142.9310  140.0298  169.1274 O.3     1  UNL1       -0.4697
     27 C         141.9666  139.3390  170.0454 C.3     1  UNL1        0.2468
     28 C         140.6820  140.0124  170.4282 C.2     1  UNL1        0.0940
     29 O         140.6233  140.8738  171.6548 O.co2   1  UNL1       -0.5454
     30 O         139.4562  139.8244  169.5844 O.co2   1  UNL1       -0.5454
     31 C         140.1522  138.3400  162.8041 C.3     1  UNL1        0.0419
     32 C         139.3765  138.4820  164.0800 C.ar    1  UNL1       -0.0210
     33 C         139.0797  137.2725  164.9160 C.ar    1  UNL1       -0.0042
     34 C         138.3040  137.4146  166.1920 C.ar    1  UNL1       -0.0003
     35 C         137.8250  138.7662  166.6319 C.ar    1  UNL1       -0.0000
     36 C         138.1217  139.9758  165.7959 C.ar    1  UNL1       -0.0003
     37 C         138.8974  139.8337  164.5200 C.ar    1  UNL1       -0.0042
@<TRIPOS>UNITY_ATOM_ATTR
29 1
charge -1
@<TRIPOS>BOND
     1    19    20    1
     2    20    21   ar
     3    21    22   ar
     4    22    18    1
     5    18     1    1
     6     1    31    1
     7    31    32    1
     8    32    33   ar
     9    33    34   ar
    10    34    35   ar
    11    35    36   ar
    12    36    37   ar
    13     1     2    1
    14     2     3   ar
    15     3     4   ar
    16     4     5   ar
    17     5     8    1
    18     8     9   ar
    19     9    10   ar
    20    10    11   ar
    21    11    14    1
    22    14    15    1
    23    14    16    1
    24    14    17    1
    25    11    12   ar
    26    12    13   ar
    27     5     6   ar
    28     6     7   ar
    29    22    23   ar
    30    23    24   ar
    31    24    25   ar
    32    25    26    1
    33    26    27    1
    34    27    28    1
    35    28    29   ar
    36    28    30   ar
    37    25    20   ar
    38    37    32   ar
    39     7     2   ar
    40    13     8   ar
@<TRIPOS>MOLECULE
*****
 37 40 0 0 0
SMALL
GASTEIGER

@<TRIPOS>ATOM
      1 C         138.7214  139.4707  163.9293 C.3     1  UNL1        0.0784
      2 C         139.2118  139.1899  162.5397 C.ar    1  UNL1       -0.0118
      3 C         140.5487  138.5419  162.3329 C.ar    1  UNL1       -0.0034
      4 C         141.0390  138.2611  160.9434 C.ar    1  UNL1       -0.0003
      5 C         140.1925  138.6283  159.7608 C.ar    1  UNL1       -0.0000
      6 C         138.8557  139.2763  159.9677 C.ar    1  UNL1       -0.0003
      7 C         138.3653  139.5571  161.3571 C.ar    1  UNL1       -0.0034
      8 C         140.6829  138.3475  158.3713 C.ar    1  UNL1       -0.0000
      9 C         139.7054  138.0100  157.2848 C.ar    1  UNL1       -0.0001
     10 C         140.1958  137.7292  155.8953 C.ar    1  UNL1        0.0039
     11 C         141.6638  137.7859  155.5923 C.ar    1  UNL1        0.0714
     12 C         142.6414  138.1234  156.6789 C.ar    1  UNL1        0.0039
     13 C         142.1509  138.4042  158.0683 C.ar    1  UNL1       -0.0001
     14 C         142.1542  137.5050  154.2029 C.3     1  UNL1        0.4186
     15 F         142.6447  137.2242  152.8135 F       1  UNL1       -0.1659
     16 F         141.3415  138.6539  153.6838 F       1  UNL1       -0.1659
     17 F         142.9670  136.3562  154.7220 F       1  UNL1       -0.1659
     18 S         139.0948  138.5537  165.0560 S.3     1  UNL1       -0.1097
     19 C         139.2436  140.5625  169.8459 C.3     1  UNL1        0.0342
     20 C         139.9554  140.0827  168.6158 C.ar    1  UNL1        0.0126
     21 C         139.1693  139.5581  167.4510 C.ar    1  UNL1        0.0049
     22 C         139.8810  139.0783  166.2209 C.ar    1  UNL1        0.0254
     23 C         141.3789  139.1231  166.1555 C.ar    1  UNL1        0.0093
     24 C         142.1650  139.6477  167.3203 C.ar    1  UNL1        0.0371
     25 C         141.4532  140.1275  168.5505 C.ar    1  UNL1        0.1351
     26 O         142.2394  140.6521  169.7153 O.3     1  UNL1       -0.4697
     27 C         142.9985  141.9397  169.5889 C.3     1  UNL1        0.2468
     28 C         142.5308  143.1612  170.3234 C.2     1  UNL1        0.0940
     29 O         143.5093  143.9869  171.1049 O.co2   1  UNL1       -0.5454
     30 O         141.0848  143.5570  170.2762 O.co2   1  UNL1       -0.5454
     31 C         137.8576  140.6685  164.1920 C.3     1  UNL1        0.0419
     32 C         138.4848  142.0165  164.3908 C.ar    1  UNL1       -0.0210
     33 C         137.6304  143.2493  164.3864 C.ar    1  UNL1       -0.0042
     34 C         138.2576  144.5973  164.5852 C.ar    1  UNL1       -0.0003
     35 C         139.7393  144.7124  164.7884 C.ar    1  UNL1       -0.0000
     36 C         140.5939  143.4796  164.7927 C.ar    1  UNL1       -0.0003
     37 C         139.9666  142.1316  164.5939 C.ar    1  UNL1       -0.0042
@<TRIPOS>UNITY_ATOM_ATTR
29 1
charge -1
@<TRIPOS>BOND
     1    19    20    1
     2    20    21   ar
     3    21    22   ar
     4    22    18    1
     5    18     1    1
     6     1    31    1
     7    31    32    1
     8    32    33   ar
     9    33    34   ar
    10    34    35   ar
    11    35    36   ar
    12    36    37   ar
    13     1     2    1
    14     2     3   ar
    15     3     4   ar
    16     4     5   ar
    17     5     8    1
    18     8     9   ar
    19     9    10   ar
    20    10    11   ar
    21    11    14    1
    22    14    15    1
    23    14    16    1
    24    14    17    1
    25    11    12   ar
    26    12    13   ar
    27     5     6   ar
    28     6     7   ar
    29    22    23   ar
    30    23    24   ar
    31    24    25   ar
    32    25    26    1
    33    26    27    1
    34    27    28    1
    35    28    29   ar
    36    28    30   ar
    37    25    20   ar
    38    37    32   ar
    39     7     2   ar
    40    13     8   ar
@<TRIPOS>MOLECULE
*****
 37 40 0 0 0
SMALL
GASTEIGER

@<TRIPOS>ATOM
      1 C         144.0000  139.3917  163.8911 C.3     1  UNL1        0.0784
      2 C         143.3695  139.1005  162.5615 C.ar    1  UNL1       -0.0118
      3 C         143.9494  138.0408  161.6724 C.ar    1  UNL1       -0.0034
      4 C         143.3189  137.7497  160.3429 C.ar    1  UNL1       -0.0003
      5 C         142.1085  138.5184  159.9024 C.ar    1  UNL1       -0.0000
      6 C         141.5286  139.5782  160.7915 C.ar    1  UNL1       -0.0003
      7 C         142.1591  139.8692  162.1210 C.ar    1  UNL1       -0.0034
      8 C         141.4780  138.2273  158.5728 C.ar    1  UNL1       -0.0000
      9 C         142.1842  137.3472  157.5845 C.ar    1  UNL1       -0.0001
     10 C         141.5537  137.0561  156.2549 C.ar    1  UNL1        0.0039
     11 C         140.2170  137.6451  155.9136 C.ar    1  UNL1        0.0714
     12 C         139.5108  138.5252  156.9020 C.ar    1  UNL1        0.0039
     13 C         140.1413  138.8163  158.2316 C.ar    1  UNL1       -0.0001
     14 C         139.5865  137.3540  154.5841 C.3     1  UNL1        0.4186
     15 F         138.9560  137.0630  153.2546 F       1  UNL1       -0.1659
     16 F         138.3261  136.9262  155.2755 F       1  UNL1       -0.1659
     17 F         140.8470  137.7819  153.8927 F       1  UNL1       -0.1659
     18 S         143.5836  138.6146  165.1047 S.3     1  UNL1       -0.1097
     19 C         138.5856  139.5601  166.1657 C.3     1  UNL1        0.0342
     20 C         140.0327  139.6365  166.5529 C.ar    1  UNL1        0.0126
     21 C         141.0846  139.0874  165.6353 C.ar    1  UNL1        0.0049
     22 C         142.5318  139.1638  166.0224 C.ar    1  UNL1        0.0254
     23 C         142.9271  139.7892  167.3272 C.ar    1  UNL1        0.0093
     24 C         141.8752  140.3383  168.2448 C.ar    1  UNL1        0.0371
     25 C         140.4280  140.2619  167.8577 C.ar    1  UNL1        0.1351
     26 O         139.3762  140.8111  168.7754 O.3     1  UNL1       -0.4697
     27 C         139.6687  140.9774  170.2371 C.3     1  UNL1        0.2468
     28 C         140.2436  142.2665  170.7450 C.2     1  UNL1        0.0940
     29 O         139.8309  143.5680  170.1239 O.co2   1  UNL1       -0.5454
     30 O         141.2312  142.2540  171.8739 O.co2   1  UNL1       -0.5454
     31 C         145.0467  140.4597  164.0070 C.3     1  UNL1        0.0419
     32 C         144.6625  141.9038  163.8762 C.ar    1  UNL1       -0.0210
     33 C         144.7081  142.5734  162.5348 C.ar    1  UNL1       -0.0042
     34 C         144.3239  144.0175  162.4039 C.ar    1  UNL1       -0.0003
     35 C         143.8941  144.7919  163.6145 C.ar    1  UNL1       -0.0000
     36 C         143.8484  144.1222  164.9560 C.ar    1  UNL1       -0.0003
     37 C         144.2326  142.6782  165.0868 C.ar    1  UNL1       -0.0042
@<TRIPOS>UNITY_ATOM_ATTR
29 1
charge -1
@<TRIPOS>BOND
     1    19    20    1
     2    20    21   ar
     3    21    22   ar
     4    22    18    1
     5    18     1    1
     6     1    31    1
     7    31    32    1
     8    32    33   ar
     9    33    34   ar
    10    34    35   ar
    11    35    36   ar
    12    36    37   ar
    13     1     2    1
    14     2     3   ar
    15     3     4   ar
    16     4     5   ar
    17     5     8    1
    18     8     9   ar
    19     9    10   ar
    20    10    11   ar
    21    11    14    1
    22    14    15    1
    23    14    16    1
    24    14    17    1
    25    11    12   ar
    26    12    13   ar
    27     5     6   ar
    28     6     7   ar
    29    22    23   ar
    30    23    24   ar
    31    24    25   ar
    32    25    26    1
    33    26    27    1
    34    27    28    1
    35    28    29   ar
    36    28    30   ar
    37    25    20   ar
    38    37    32   ar
    39     7     2   ar
    40    13     8   ar
@<TRIPOS>MOLECULE
*****
 37 40 0 0 0
SMALL
GASTEIGER

@<TRIPOS>ATOM
      1 C         141.2618  142.1368  162.3357 C.3     1  UNL1        0.0784
      2 C         142.2503  142.0777  161.2090 C.ar    1  UNL1       -0.0118
      3 C         143.6686  142.5120  161.4320 C.ar    1  UNL1       -0.0034
      4 C         144.6570  142.4529  160.3053 C.ar    1  UNL1       -0.0003
      5 C         144.2272  141.9594  158.9556 C.ar    1  UNL1       -0.0000
      6 C         142.8089  141.5251  158.7326 C.ar    1  UNL1       -0.0003
      7 C         141.8205  141.5842  159.8592 C.ar    1  UNL1       -0.0034
      8 C         145.2157  141.9003  157.8289 C.ar    1  UNL1       -0.0000
      9 C         146.4139  142.8026  157.8343 C.ar    1  UNL1       -0.0001
     10 C         147.4025  142.7435  156.7076 C.ar    1  UNL1        0.0039
     11 C         147.1927  141.7821  155.5755 C.ar    1  UNL1        0.0714
     12 C         145.9943  140.8798  155.5701 C.ar    1  UNL1        0.0039
     13 C         145.0059  140.9389  156.6968 C.ar    1  UNL1       -0.0001
     14 C         148.1811  141.7230  154.4488 C.3     1  UNL1        0.4186
     15 F         149.1695  141.6638  153.3221 F       1  UNL1       -0.1659
     16 F         149.3005  141.5874  155.4380 F       1  UNL1       -0.1659
     17 F         147.0617  141.8585  153.4596 F       1  UNL1       -0.1659
     18 S         141.5487  142.9815  163.5415 S.3     1  UNL1       -0.1097
     19 C         142.7098  139.5412  167.2586 C.3     1  UNL1        0.0342
     20 C         141.9002  140.7078  166.7753 C.ar    1  UNL1        0.0126
     21 C         142.1292  141.2614  165.4001 C.ar    1  UNL1        0.0049
     22 C         141.3196  142.4279  164.9168 C.ar    1  UNL1        0.0254
     23 C         140.2809  143.0409  165.8086 C.ar    1  UNL1        0.0093
     24 C         140.0519  142.4874  167.1837 C.ar    1  UNL1        0.0371
     25 C         140.8615  141.3208  167.6670 C.ar    1  UNL1        0.1351
     26 O         140.6324  140.7672  169.0423 O.3     1  UNL1       -0.4697
     27 C         139.6476  141.4266  169.9617 C.3     1  UNL1        0.2468
     28 C         140.0878  142.5536  170.8485 C.2     1  UNL1        0.0940
     29 O         139.9082  143.9740  170.4011 O.co2   1  UNL1       -0.5454
     30 O         140.7075  142.2601  172.1825 O.co2   1  UNL1       -0.5454
     31 C         139.9865  141.3512  162.2565 C.3     1  UNL1        0.0419
     32 C         139.8086  140.1230  163.0990 C.ar    1  UNL1       -0.0210
     33 C         140.7042  138.9372  162.8946 C.ar    1  UNL1       -0.0042
     34 C         140.5263  137.7089  163.7371 C.ar    1  UNL1       -0.0003
     35 C         139.4529  137.6665  164.7839 C.ar    1  UNL1       -0.0000
     36 C         138.5572  138.8523  164.9883 C.ar    1  UNL1       -0.0003
     37 C         138.7351  140.0805  164.1458 C.ar    1  UNL1       -0.0042
@<TRIPOS>UNITY_ATOM_ATTR
29 1
charge -1
@<TRIPOS>BOND
     1    19    20    1
     2    20    21   ar
     3    21    22   ar
     4    22    18    1
     5    18     1    1
     6     1    31    1
     7    31    32    1
     8    32    33   ar
     9    33    34   ar
    10    34    35   ar
    11    35    36   ar
    12    36    37   ar
    13     1     2    1
    14     2     3   ar
    15     3     4   ar
    16     4     5   ar
    17     5     8    1
    18     8     9   ar
    19     9    10   ar
    20    10    11   ar
    21    11    14    1
    22    14    15    1
    23    14    16    1
    24    14    17    1
    25    11    12   ar
    26    12    13   ar
    27     5     6   ar
    28     6     7   ar
    29    22    23   ar
    30    23    24   ar
    31    24    25   ar
    32    25    26    1
    33    26    27    1
    34    27    28    1
    35    28    29   ar
    36    28    30   ar
    37    25    20   ar
    38    37    32   ar
    39     7     2   ar
    40    13     8   ar
