@<TRIPOS>MOLECULE
*****
 29 32 0 0 0
SMALL
GASTEIGER

@<TRIPOS>ATOM
      1 O         141.9900  139.8434  160.3393 O.2     1  UNL1       -0.2684
      2 C         142.5700  138.4798  160.1067 C.2     1  UNL1        0.2669
      3 N         142.8376  137.5703  161.2690 N.am    1  UNL1       -0.3011
      4 H         143.2182  136.6753  161.1163 H       1  UNL1        0.1497
      5 C         142.5252  138.0244  162.6641 C.3     1  UNL1        0.0747
      6 C         143.4969  138.8944  163.4049 C.3     1  UNL1        0.0369
      7 C         143.1845  139.3485  164.8000 C.3     1  UNL1        0.0737
      8 N         141.9003  138.9326  165.4542 N.3     1  UNL1       -0.2738
      9 C         140.9286  138.0626  164.7134 C.3     1  UNL1        0.0737
     10 C         141.2410  137.6085  163.3184 C.3     1  UNL1        0.0369
     11 C         141.5879  139.3867  166.8493 C.3     1  UNL1        0.0575
     12 C         140.1927  139.8054  167.2070 C.3     1  UNL1        0.0160
     13 C         139.8803  140.2595  168.6021 C.3     1  UNL1        0.0014
     14 C         140.9632  140.2949  169.6395 C.3     1  UNL1        0.0001
     15 C         142.3585  139.8762  169.2817 C.3     1  UNL1        0.0014
     16 C         142.6708  139.4221  167.8867 C.3     1  UNL1        0.0160
     17 C         142.8824  138.0256  158.7115 C.ar    1  UNL1        0.1761
     18 C         142.5209  136.6977  158.1150 C.ar    1  UNL1        0.0673
     19 C         143.0262  136.6710  156.7028 C.ar    1  UNL1        0.1792
     20 O         143.6999  137.9825  156.4268 O.2     1  UNL1       -0.3532
     21 N         143.6110  138.8197  157.6682 N.ar    1  UNL1       -0.0723
     22 C         142.8829  135.5328  155.7365 C.ar    1  UNL1        0.0648
     23 C         142.1346  135.7296  154.4514 C.ar    1  UNL1        0.0077
     24 C         141.9913  134.5914  153.4851 C.ar    1  UNL1        0.0299
     25 C         142.5963  133.2563  153.8038 C.ar    1  UNL1        0.1424
     26 F         142.4530  132.1181  152.8374 F       1  UNL1       -0.2041
     27 C         143.3446  133.0595  155.0888 C.ar    1  UNL1        0.0593
     28 C         143.4879  134.1977  156.0551 C.ar    1  UNL1        0.1453
     29 F         144.2362  134.0009  157.3402 F       1  UNL1       -0.2040
@<TRIPOS>BOND
     1     1     2    2
     2     2     3   am
     3     3     5    1
     4     5     6    1
     5     6     7    1
     6     7     8    1
     7     8    11    1
     8    11    12    1
     9    12    13    1
    10    13    14    1
    11    14    15    1
    12    15    16    1
    13     8     9    1
    14     9    10    1
    15     2    17    1
    16    17    18   ar
    17    18    19   ar
    18    19    22    1
    19    22    23   ar
    20    23    24   ar
    21    24    25   ar
    22    25    26    1
    23    25    27   ar
    24    27    28   ar
    25    28    29    1
    26    19    20   ar
    27    20    21   ar
    28    10     5    1
    29    21    17   ar
    30    16    11    1
    31    28    22   ar
    32     3     4    1
@<TRIPOS>MOLECULE
*****
 29 32 0 0 0
SMALL
GASTEIGER

@<TRIPOS>ATOM
      1 O         144.3413  140.4610  161.4230 O.2     1  UNL1       -0.2684
      2 C         143.1757  139.6565  160.9288 C.2     1  UNL1        0.2669
      3 N         141.9695  139.4702  161.8007 N.am    1  UNL1       -0.3011
      4 H         141.2045  138.9422  161.4764 H       1  UNL1        0.1497
      5 C         141.9288  140.0884  163.1669 C.3     1  UNL1        0.0747
      6 C         142.5324  139.3666  164.3350 C.3     1  UNL1        0.0369
      7 C         142.4916  139.9848  165.7010 C.3     1  UNL1        0.0737
      8 N         141.8473  141.3248  165.8989 N.3     1  UNL1       -0.2738
      9 C         141.2437  142.0466  164.7308 C.3     1  UNL1        0.0737
     10 C         141.2844  141.4284  163.3647 C.3     1  UNL1        0.0369
     11 C         141.8066  141.9430  167.2651 C.3     1  UNL1        0.0575
     12 C         140.5672  142.6463  167.7334 C.3     1  UNL1        0.0160
     13 C         140.5265  143.2645  169.0995 C.3     1  UNL1        0.0014
     14 C         141.7252  143.1794  169.9972 C.3     1  UNL1        0.0001
     15 C         142.9646  142.4761  169.5289 C.3     1  UNL1        0.0014
     16 C         143.0052  141.8579  168.1628 C.3     1  UNL1        0.0160
     17 C         143.2165  139.0383  159.5627 C.ar    1  UNL1        0.1761
     18 C         142.6160  137.7200  159.1734 C.ar    1  UNL1        0.0673
     19 C         142.8932  137.4968  157.7161 C.ar    1  UNL1        0.1792
     20 O         143.6650  138.6771  157.2050 O.2     1  UNL1       -0.3532
     21 N         143.8648  139.6298  158.3462 N.ar    1  UNL1       -0.0723
     22 C         142.4725  136.3029  156.9114 C.ar    1  UNL1        0.0648
     23 C         143.1477  134.9802  157.1227 C.ar    1  UNL1        0.0077
     24 C         142.7270  133.7863  156.3180 C.ar    1  UNL1        0.0299
     25 C         141.6311  133.9151  155.3019 C.ar    1  UNL1        0.1424
     26 F         141.2104  132.7212  154.4972 F       1  UNL1       -0.2041
     27 C         140.9559  135.2378  155.0906 C.ar    1  UNL1        0.0593
     28 C         141.3766  136.4317  155.8953 C.ar    1  UNL1        0.1453
     29 F         140.7014  137.7544  155.6840 F       1  UNL1       -0.2040
@<TRIPOS>BOND
     1     1     2    2
     2     2     3   am
     3     3     5    1
     4     5     6    1
     5     6     7    1
     6     7     8    1
     7     8    11    1
     8    11    12    1
     9    12    13    1
    10    13    14    1
    11    14    15    1
    12    15    16    1
    13     8     9    1
    14     9    10    1
    15     2    17    1
    16    17    18   ar
    17    18    19   ar
    18    19    22    1
    19    22    23   ar
    20    23    24   ar
    21    24    25   ar
    22    25    26    1
    23    25    27   ar
    24    27    28   ar
    25    28    29    1
    26    19    20   ar
    27    20    21   ar
    28    10     5    1
    29    21    17   ar
    30    16    11    1
    31    28    22   ar
    32     3     4    1
@<TRIPOS>MOLECULE
*****
 29 32 0 0 0
SMALL
GASTEIGER

@<TRIPOS>ATOM
      1 O         140.9264  136.8742  162.9105 O.2     1  UNL1       -0.2684
      2 C         141.4757  138.2388  163.2040 C.2     1  UNL1        0.2669
      3 N         141.8123  139.1700  162.0773 N.am    1  UNL1       -0.3011
      4 H         142.1728  140.0657  162.2699 H       1  UNL1        0.1497
      5 C         141.5995  138.7367  160.6570 C.3     1  UNL1        0.0747
      6 C         140.2430  138.8634  160.0295 C.3     1  UNL1        0.0369
      7 C         140.0303  138.4300  158.6093 C.3     1  UNL1        0.0737
      8 N         141.1741  137.8700  157.8167 N.3     1  UNL1       -0.2738
      9 C         142.5306  137.7433  158.4443 C.3     1  UNL1        0.0737
     10 C         142.7433  138.1766  159.8645 C.3     1  UNL1        0.0369
     11 C         140.9613  137.4367  156.3965 C.3     1  UNL1        0.0575
     12 C         142.1348  137.0460  155.5477 C.3     1  UNL1        0.0160
     13 C         141.9220  136.6127  154.1275 C.3     1  UNL1        0.0014
     14 C         140.5358  136.5700  153.5560 C.3     1  UNL1        0.0001
     15 C         139.3623  136.9606  154.4049 C.3     1  UNL1        0.0014
     16 C         139.5751  137.3939  155.8250 C.3     1  UNL1        0.0160
     17 C         141.6885  138.6721  164.6242 C.ar    1  UNL1        0.1761
     18 C         140.8395  139.6471  165.3850 C.ar    1  UNL1        0.0673
     19 C         141.4139  139.7842  166.7640 C.ar    1  UNL1        0.1792
     20 O         142.6177  138.8939  166.8553 O.2     1  UNL1       -0.3532
     21 N         142.7874  138.2067  165.5329 N.ar    1  UNL1       -0.0723
     22 C         140.8784  140.6580  167.8593 C.ar    1  UNL1        0.0648
     23 C         139.9259  140.0934  168.8712 C.ar    1  UNL1        0.0077
     24 C         139.3904  140.9672  169.9665 C.ar    1  UNL1        0.0299
     25 C         139.8075  142.4057  170.0498 C.ar    1  UNL1        0.1424
     26 F         139.2720  143.2795  171.1451 F       1  UNL1       -0.2041
     27 C         140.7600  142.9703  169.0379 C.ar    1  UNL1        0.0593
     28 C         141.2954  142.0964  167.9426 C.ar    1  UNL1        0.1453
     29 F         142.2479  142.6610  166.9307 F       1  UNL1       -0.2040
@<TRIPOS>BOND
     1     1     2    2
     2     2     3   am
     3     3     5    1
     4     5     6    1
     5     6     7    1
     6     7     8    1
     7     8    11    1
     8    11    12    1
     9    12    13    1
    10    13    14    1
    11    14    15    1
    12    15    16    1
    13     8     9    1
    14     9    10    1
    15     2    17    1
    16    17    18   ar
    17    18    19   ar
    18    19    22    1
    19    22    23   ar
    20    23    24   ar
    21    24    25   ar
    22    25    26    1
    23    25    27   ar
    24    27    28   ar
    25    28    29    1
    26    19    20   ar
    27    20    21   ar
    28    10     5    1
    29    21    17   ar
    30    16    11    1
    31    28    22   ar
    32     3     4    1
@<TRIPOS>MOLECULE
*****
 29 32 0 0 0
SMALL
GASTEIGER

@<TRIPOS>ATOM
      1 O         143.3023  138.1785  162.1055 O.2     1  UNL1       -0.2684
      2 C         142.9279  139.1189  160.9985 C.2     1  UNL1        0.2669
      3 N         142.4195  140.4927  161.3214 N.am    1  UNL1       -0.3011
      4 H         142.1738  141.1100  160.5948 H       1  UNL1        0.1497
      5 C         142.2856  140.9261  162.7512 C.3     1  UNL1        0.0747
      6 C         140.9447  140.8928  163.4225 C.3     1  UNL1        0.0369
      7 C         140.8108  141.3262  164.8523 C.3     1  UNL1        0.0737
      8 N         142.0179  141.7928  165.6107 N.3     1  UNL1       -0.2738
      9 C         143.3588  141.8260  164.9394 C.3     1  UNL1        0.0737
     10 C         143.4927  141.3927  163.5096 C.3     1  UNL1        0.0369
     11 C         141.8840  142.2261  167.0405 C.3     1  UNL1        0.0575
     12 C         143.0552  142.1145  167.9709 C.3     1  UNL1        0.0160
     13 C         142.9213  142.5479  169.4007 C.3     1  UNL1        0.0014
     14 C         141.6161  143.0929  169.9001 C.3     1  UNL1        0.0001
     15 C         140.4448  143.2045  168.9697 C.3     1  UNL1        0.0014
     16 C         140.5787  142.7711  167.5399 C.3     1  UNL1        0.0160
     17 C         143.0618  138.6856  159.5687 C.ar    1  UNL1        0.1761
     18 C         142.4996  137.4295  158.9719 C.ar    1  UNL1        0.0673
     19 C         142.8718  137.3998  157.5190 C.ar    1  UNL1        0.1792
     20 O         143.6640  138.6375  157.2180 O.2     1  UNL1       -0.3532
     21 N         143.7814  139.4321  158.4848 N.ar    1  UNL1       -0.0723
     22 C         142.5145  136.3217  156.5392 C.ar    1  UNL1        0.0648
     23 C         141.8453  136.6767  155.2445 C.ar    1  UNL1        0.0077
     24 C         141.4880  135.5986  154.2647 C.ar    1  UNL1        0.0299
     25 C         141.7998  134.1656  154.5796 C.ar    1  UNL1        0.1424
     26 F         141.4425  133.0875  153.5998 F       1  UNL1       -0.2041
     27 C         142.4690  133.8106  155.8743 C.ar    1  UNL1        0.0593
     28 C         142.8263  134.8887  156.8541 C.ar    1  UNL1        0.1453
     29 F         143.4955  134.5338  158.1488 F       1  UNL1       -0.2040
@<TRIPOS>BOND
     1     1     2    2
     2     2     3   am
     3     3     5    1
     4     5     6    1
     5     6     7    1
     6     7     8    1
     7     8    11    1
     8    11    12    1
     9    12    13    1
    10    13    14    1
    11    14    15    1
    12    15    16    1
    13     8     9    1
    14     9    10    1
    15     2    17    1
    16    17    18   ar
    17    18    19   ar
    18    19    22    1
    19    22    23   ar
    20    23    24   ar
    21    24    25   ar
    22    25    26    1
    23    25    27   ar
    24    27    28   ar
    25    28    29    1
    26    19    20   ar
    27    20    21   ar
    28    10     5    1
    29    21    17   ar
    30    16    11    1
    31    28    22   ar
    32     3     4    1
@<TRIPOS>MOLECULE
*****
 29 32 0 0 0
SMALL
GASTEIGER

@<TRIPOS>ATOM
      1 O         143.1601  140.9743  162.1532 O.2     1  UNL1       -0.2684
      2 C         143.1992  142.4014  161.6929 C.2     1  UNL1        0.2669
      3 N         142.9179  143.5103  162.6630 N.am    1  UNL1       -0.3011
      4 H         142.9436  144.4470  162.3609 H       1  UNL1        0.1497
      5 C         142.5977  143.1922  164.0936 C.3     1  UNL1        0.0747
      6 C         143.6972  142.8196  165.0433 C.3     1  UNL1        0.0369
      7 C         143.3769  142.5014  166.4737 C.3     1  UNL1        0.0737
      8 N         141.9570  142.5559  166.9544 N.3     1  UNL1       -0.2738
      9 C         140.8575  142.9285  166.0046 C.3     1  UNL1        0.0737
     10 C         141.1778  143.2466  164.5742 C.3     1  UNL1        0.0369
     11 C         141.6368  142.2377  168.3849 C.3     1  UNL1        0.0575
     12 C         142.5109  141.2948  169.1574 C.3     1  UNL1        0.0160
     13 C         142.1906  140.9767  170.5879 C.3     1  UNL1        0.0014
     14 C         140.9962  141.6015  171.2458 C.3     1  UNL1        0.0001
     15 C         140.1220  142.5444  170.4733 C.3     1  UNL1        0.0014
     16 C         140.4423  142.8625  169.0429 C.3     1  UNL1        0.0160
     17 C         143.5194  142.7196  160.2624 C.ar    1  UNL1        0.1761
     18 C         144.5859  142.0690  159.4321 C.ar    1  UNL1        0.0673
     19 C         144.5551  142.6915  158.0676 C.ar    1  UNL1        0.1792
     20 O         143.4696  143.7267  158.0548 O.2     1  UNL1       -0.3532
     21 N         142.8295  143.7440  159.4112 N.ar    1  UNL1       -0.0723
     22 C         145.4522  142.3404  156.9179 C.ar    1  UNL1        0.0648
     23 C         144.8794  141.7023  155.6872 C.ar    1  UNL1        0.0077
     24 C         145.7765  141.3512  154.5375 C.ar    1  UNL1        0.0299
     25 C         147.2465  141.6382  154.6185 C.ar    1  UNL1        0.1424
     26 F         148.1437  141.2872  153.4687 F       1  UNL1       -0.2041
     27 C         147.8194  142.2764  155.8491 C.ar    1  UNL1        0.0593
     28 C         146.9223  142.6275  156.9989 C.ar    1  UNL1        0.1453
     29 F         147.4952  143.2656  158.2296 F       1  UNL1       -0.2040
@<TRIPOS>BOND
     1     1     2    2
     2     2     3   am
     3     3     5    1
     4     5     6    1
     5     6     7    1
     6     7     8    1
     7     8    11    1
     8    11    12    1
     9    12    13    1
    10    13    14    1
    11    14    15    1
    12    15    16    1
    13     8     9    1
    14     9    10    1
    15     2    17    1
    16    17    18   ar
    17    18    19   ar
    18    19    22    1
    19    22    23   ar
    20    23    24   ar
    21    24    25   ar
    22    25    26    1
    23    25    27   ar
    24    27    28   ar
    25    28    29    1
    26    19    20   ar
    27    20    21   ar
    28    10     5    1
    29    21    17   ar
    30    16    11    1
    31    28    22   ar
    32     3     4    1
@<TRIPOS>MOLECULE
*****
 29 32 0 0 0
SMALL
GASTEIGER

@<TRIPOS>ATOM
      1 O         140.1404  137.6654  162.0531 O.2     1  UNL1       -0.2684
      2 C         140.1332  139.1557  161.8831 C.2     1  UNL1        0.2669
      3 N         140.4439  139.7596  160.5457 N.am    1  UNL1       -0.3011
      4 H         140.4392  140.7377  160.4342 H       1  UNL1        0.1497
      5 C         140.7618  138.8731  159.3781 C.3     1  UNL1        0.0747
      6 C         142.1508  138.3355  159.2009 C.3     1  UNL1        0.0369
      7 C         142.4686  137.4490  158.0334 C.3     1  UNL1        0.0737
      8 N         141.3973  137.1002  157.0430 N.3     1  UNL1       -0.2738
      9 C         140.0083  137.6378  157.2203 C.3     1  UNL1        0.0737
     10 C         139.6905  138.5242  158.3878 C.3     1  UNL1        0.0369
     11 C         141.7152  136.2137  155.8755 C.3     1  UNL1        0.0575
     12 C         142.2634  134.8368  156.1066 C.3     1  UNL1        0.0160
     13 C         142.5813  133.9503  154.9390 C.3     1  UNL1        0.0014
     14 C         142.3509  134.4408  153.5403 C.3     1  UNL1        0.0001
     15 C         141.8026  135.8178  153.3092 C.3     1  UNL1        0.0014
     16 C         141.4848  136.7042  154.4768 C.3     1  UNL1        0.0160
     17 C         139.8154  140.0422  163.0507 C.ar    1  UNL1        0.1761
     18 C         140.2508  139.8219  164.4691 C.ar    1  UNL1        0.0673
     19 C         139.7108  140.9482  165.3000 C.ar    1  UNL1        0.1792
     20 O         138.9417  141.8644  164.3949 O.2     1  UNL1       -0.3532
     21 N         139.0063  141.3045  163.0048 N.ar    1  UNL1       -0.0723
     22 C         139.9058  141.1268  166.7765 C.ar    1  UNL1        0.0648
     23 C         140.6397  142.3272  167.2963 C.ar    1  UNL1        0.0077
     24 C         140.8346  142.5058  168.7728 C.ar    1  UNL1        0.0299
     25 C         140.2956  141.4840  169.7295 C.ar    1  UNL1        0.1424
     26 F         140.4906  141.6626  171.2060 F       1  UNL1       -0.2041
     27 C         139.5617  140.2835  169.2096 C.ar    1  UNL1        0.0593
     28 C         139.3668  140.1049  167.7331 C.ar    1  UNL1        0.1453
     29 F         138.6328  138.9044  167.2133 F       1  UNL1       -0.2040
@<TRIPOS>BOND
     1     1     2    2
     2     2     3   am
     3     3     5    1
     4     5     6    1
     5     6     7    1
     6     7     8    1
     7     8    11    1
     8    11    12    1
     9    12    13    1
    10    13    14    1
    11    14    15    1
    12    15    16    1
    13     8     9    1
    14     9    10    1
    15     2    17    1
    16    17    18   ar
    17    18    19   ar
    18    19    22    1
    19    22    23   ar
    20    23    24   ar
    21    24    25   ar
    22    25    26    1
    23    25    27   ar
    24    27    28   ar
    25    28    29    1
    26    19    20   ar
    27    20    21   ar
    28    10     5    1
    29    21    17   ar
    30    16    11    1
    31    28    22   ar
    32     3     4    1
@<TRIPOS>MOLECULE
*****
 29 32 0 0 0
SMALL
GASTEIGER

@<TRIPOS>ATOM
      1 O         137.8754  139.5038  161.8268 O.2     1  UNL1       -0.2684
      2 C         139.1799  139.5903  161.0914 C.2     1  UNL1        0.2669
      3 N         140.4164  140.0449  161.8085 N.am    1  UNL1       -0.3011
      4 H         141.2726  140.1017  161.3258 H       1  UNL1        0.1497
      5 C         140.3485  140.4131  163.2611 C.3     1  UNL1        0.0747
      6 C         140.4660  139.3483  164.3110 C.3     1  UNL1        0.0369
      7 C         140.3981  139.7166  165.7635 C.3     1  UNL1        0.0737
      8 N         140.2127  141.1496  166.1660 N.3     1  UNL1       -0.2738
      9 C         140.0951  142.2144  165.1161 C.3     1  UNL1        0.0737
     10 C         140.1630  141.8461  163.6636 C.3     1  UNL1        0.0369
     11 C         140.1447  141.5178  167.6186 C.3     1  UNL1        0.0575
     12 C         140.5398  142.8950  168.0625 C.3     1  UNL1        0.0160
     13 C         140.4719  143.2632  169.5150 C.3     1  UNL1        0.0014
     14 C         140.0089  142.2541  170.5237 C.3     1  UNL1        0.0001
     15 C         139.6138  140.8768  170.0797 C.3     1  UNL1        0.0014
     16 C         139.6817  140.5087  168.6272 C.3     1  UNL1        0.0160
     17 C         139.2478  139.2221  159.6388 C.ar    1  UNL1        0.1761
     18 C         140.1963  138.2370  159.0225 C.ar    1  UNL1        0.0673
     19 C         139.9139  138.1804  157.5503 C.ar    1  UNL1        0.1792
     20 O         138.7908  139.1306  157.2570 O.2     1  UNL1       -0.3532
     21 N         138.3792  139.7743  158.5477 N.ar    1  UNL1       -0.0723
     22 C         140.6289  137.3240  156.5477 C.ar    1  UNL1        0.0648
     23 C         142.1030  137.0821  156.6836 C.ar    1  UNL1        0.0077
     24 C         142.8181  136.2257  155.6809 C.ar    1  UNL1        0.0299
     25 C         142.0590  135.6113  154.5424 C.ar    1  UNL1        0.1424
     26 F         142.7740  134.7550  153.5397 F       1  UNL1       -0.2041
     27 C         140.5849  135.8533  154.4065 C.ar    1  UNL1        0.0593
     28 C         139.8698  136.7096  155.4091 C.ar    1  UNL1        0.1453
     29 F         138.3957  136.9516  155.2732 F       1  UNL1       -0.2040
@<TRIPOS>BOND
     1     1     2    2
     2     2     3   am
     3     3     5    1
     4     5     6    1
     5     6     7    1
     6     7     8    1
     7     8    11    1
     8    11    12    1
     9    12    13    1
    10    13    14    1
    11    14    15    1
    12    15    16    1
    13     8     9    1
    14     9    10    1
    15     2    17    1
    16    17    18   ar
    17    18    19   ar
    18    19    22    1
    19    22    23   ar
    20    23    24   ar
    21    24    25   ar
    22    25    26    1
    23    25    27   ar
    24    27    28   ar
    25    28    29    1
    26    19    20   ar
    27    20    21   ar
    28    10     5    1
    29    21    17   ar
    30    16    11    1
    31    28    22   ar
    32     3     4    1
@<TRIPOS>MOLECULE
*****
 29 32 0 0 0
SMALL
GASTEIGER

@<TRIPOS>ATOM
      1 O         137.0471  141.4249  162.6894 O.2     1  UNL1       -0.2684
      2 C         138.2899  140.5898  162.7794 C.2     1  UNL1        0.2669
      3 N         139.1338  140.3670  161.5595 N.am    1  UNL1       -0.3011
      4 H         139.9494  139.8189  161.6186 H       1  UNL1        0.1497
      5 C         138.7349  140.9794  160.2495 C.3     1  UNL1        0.0747
      6 C         139.1881  142.3661  159.9009 C.3     1  UNL1        0.0369
      7 C         138.7893  142.9784  158.5910 C.3     1  UNL1        0.0737
      8 N         137.9372  142.2039  157.6297 N.3     1  UNL1       -0.2738
      9 C         137.4839  140.8172  157.9782 C.3     1  UNL1        0.0737
     10 C         137.8828  140.2050  159.2882 C.3     1  UNL1        0.0369
     11 C         137.5383  142.8163  156.3197 C.3     1  UNL1        0.0575
     12 C         136.6246  142.0725  155.3914 C.3     1  UNL1        0.0160
     13 C         136.2257  142.6848  154.0814 C.3     1  UNL1        0.0014
     14 C         136.7406  144.0410  153.6998 C.3     1  UNL1        0.0001
     15 C         137.6544  144.7848  154.6281 C.3     1  UNL1        0.0014
     16 C         138.0532  144.1725  155.9380 C.3     1  UNL1        0.0160
     17 C         138.6887  139.9774  164.0894 C.ar    1  UNL1        0.1761
     18 C         139.3408  140.6933  165.2350 C.ar    1  UNL1        0.0673
     19 C         139.5607  139.7000  166.3374 C.ar    1  UNL1        0.1792
     20 O         139.0444  138.3704  165.8730 O.2     1  UNL1       -0.3532
     21 N         138.5056  138.5419  164.4837 N.ar    1  UNL1       -0.0723
     22 C         140.1868  139.9862  167.6701 C.ar    1  UNL1        0.0648
     23 C         139.3194  140.2451  168.8662 C.ar    1  UNL1        0.0077
     24 C         139.9455  140.5313  170.1989 C.ar    1  UNL1        0.0299
     25 C         141.4390  140.5585  170.3355 C.ar    1  UNL1        0.1424
     26 F         142.0651  140.8447  171.6681 F       1  UNL1       -0.2041
     27 C         142.3064  140.2996  169.1394 C.ar    1  UNL1        0.0593
     28 C         141.6803  140.0135  167.8067 C.ar    1  UNL1        0.1453
     29 F         142.5477  139.7546  166.6106 F       1  UNL1       -0.2040
@<TRIPOS>BOND
     1     1     2    2
     2     2     3   am
     3     3     5    1
     4     5     6    1
     5     6     7    1
     6     7     8    1
     7     8    11    1
     8    11    12    1
     9    12    13    1
    10    13    14    1
    11    14    15    1
    12    15    16    1
    13     8     9    1
    14     9    10    1
    15     2    17    1
    16    17    18   ar
    17    18    19   ar
    18    19    22    1
    19    22    23   ar
    20    23    24   ar
    21    24    25   ar
    22    25    26    1
    23    25    27   ar
    24    27    28   ar
    25    28    29    1
    26    19    20   ar
    27    20    21   ar
    28    10     5    1
    29    21    17   ar
    30    16    11    1
    31    28    22   ar
    32     3     4    1
@<TRIPOS>MOLECULE
*****
 29 32 0 0 0
SMALL
GASTEIGER

@<TRIPOS>ATOM
      1 O         140.3878  137.2976  162.3505 O.2     1  UNL1       -0.2684
      2 C         140.3934  138.7973  162.3811 C.2     1  UNL1        0.2669
      3 N         140.6274  139.5723  161.1184 N.am    1  UNL1       -0.3011
      4 H         140.6311  140.5566  161.1385 H       1  UNL1        0.1497
      5 C         140.8558  138.8476  159.8250 C.3     1  UNL1        0.0747
      6 C         139.7108  138.6118  158.8851 C.3     1  UNL1        0.0369
      7 C         139.9392  137.8872  157.5918 C.3     1  UNL1        0.0737
      8 N         141.3126  137.3984  157.2383 N.3     1  UNL1       -0.2738
      9 C         142.4576  137.6342  158.1782 C.3     1  UNL1        0.0737
     10 C         142.2291  138.3589  159.4715 C.3     1  UNL1        0.0369
     11 C         141.5410  136.6738  155.9449 C.3     1  UNL1        0.0575
     12 C         140.5578  136.8170  154.8212 C.3     1  UNL1        0.0160
     13 C         140.7861  136.0924  153.5278 C.3     1  UNL1        0.0014
     14 C         141.9978  135.2245  153.3582 C.3     1  UNL1        0.0001
     15 C         142.9810  135.0813  154.4820 C.3     1  UNL1        0.0014
     16 C         142.7526  135.8059  155.7753 C.3     1  UNL1        0.0160
     17 C         140.1650  139.5219  163.6745 C.ar    1  UNL1        0.1761
     18 C         140.9128  139.2966  164.9552 C.ar    1  UNL1        0.0673
     19 C         140.3587  140.2345  165.9865 C.ar    1  UNL1        0.1792
     20 O         139.2686  141.0394  165.3431 O.2     1  UNL1       -0.3532
     21 N         139.1489  140.5989  163.9142 N.ar    1  UNL1       -0.0723
     22 C         140.8147  140.3477  167.4110 C.ar    1  UNL1        0.0648
     23 C         139.8482  140.0959  168.5302 C.ar    1  UNL1        0.0077
     24 C         140.3042  140.2090  169.9547 C.ar    1  UNL1        0.0299
     25 C         141.7267  140.5739  170.2600 C.ar    1  UNL1        0.1424
     26 F         142.1827  140.6871  171.6845 F       1  UNL1       -0.2041
     27 C         142.6932  140.8257  169.1409 C.ar    1  UNL1        0.0593
     28 C         142.2372  140.7126  167.7164 C.ar    1  UNL1        0.1453
     29 F         143.2038  140.9643  166.5972 F       1  UNL1       -0.2040
@<TRIPOS>BOND
     1     1     2    2
     2     2     3   am
     3     3     5    1
     4     5     6    1
     5     6     7    1
     6     7     8    1
     7     8    11    1
     8    11    12    1
     9    12    13    1
    10    13    14    1
    11    14    15    1
    12    15    16    1
    13     8     9    1
    14     9    10    1
    15     2    17    1
    16    17    18   ar
    17    18    19   ar
    18    19    22    1
    19    22    23   ar
    20    23    24   ar
    21    24    25   ar
    22    25    26    1
    23    25    27   ar
    24    27    28   ar
    25    28    29    1
    26    19    20   ar
    27    20    21   ar
    28    10     5    1
    29    21    17   ar
    30    16    11    1
    31    28    22   ar
    32     3     4    1
