@<TRIPOS>MOLECULE
*****
 35 38 0 0 0
SMALL
GASTEIGER

@<TRIPOS>ATOM
      1 N         143.0334  137.6459  161.0308 N.am    1  UNL1       -0.2765
      2 C         142.5327  138.4420  159.8623 C.2     1  UNL1        0.3050
      3 O         141.6689  139.6470  160.0906 O.2     1  UNL1       -0.2646
      4 H         143.6003  136.8551  160.8809 H       1  UNL1        0.1553
      5 C         141.9443  138.8720  165.2213 C.ar    1  UNL1       -0.0224
      6 C         141.0326  137.9705  164.4427 C.ar    1  UNL1       -0.0030
      7 C         141.3957  137.5618  163.0459 C.ar    1  UNL1        0.0144
      8 C         142.6704  138.0546  162.4276 C.ar    1  UNL1        0.0506
      9 C         143.5820  138.9561  163.2062 C.ar    1  UNL1        0.0144
     10 C         143.2189  139.3648  164.6030 C.ar    1  UNL1       -0.0030
     11 C         140.8551  140.0981  169.4118 C.3     1  UNL1        0.0056
     12 C         139.8111  140.0992  168.3348 C.3     1  UNL1        0.0007
     13 C         140.1742  139.6904  166.9379 C.3     1  UNL1        0.0044
     14 C         141.5812  139.2807  166.6181 C.3     1  UNL1        0.0223
     15 C         142.6252  139.2797  167.6952 C.3     1  UNL1        0.0044
     16 C         142.2621  139.6884  169.0920 C.3     1  UNL1        0.0007
     17 C         140.4921  140.5068  170.8086 C.3     1  UNL1        0.0417
     18 O         142.0281  142.3566  171.7930 O.co2   1  UNL1       -0.5492
     19 C         140.6972  141.9249  171.2524 C.2     1  UNL1        0.0503
     20 O         139.5713  142.9113  171.1556 O.co2   1  UNL1       -0.5492
     21 C         142.8958  138.0333  158.4655 C.ar    1  UNL1        0.3052
     22 N         143.6273  138.8752  157.4624 N.ar    1  UNL1       -0.1010
     23 N         143.7747  138.0732  156.2035 N.ar    1  UNL1       -0.0919
     24 C         143.1342  136.7356  156.4284 C.ar    1  UNL1        0.3126
     25 O         142.5910  136.7109  157.8264 O.2     1  UNL1       -0.4006
     26 N         143.0515  135.6187  155.4305 N.pl3   1  UNL1       -0.2664
     27 H         143.0009  135.8209  154.4684 H       1  UNL1        0.1566
     28 C         143.0458  134.1936  155.8987 C.ar    1  UNL1        0.0541
     29 C         142.0113  133.2384  155.3816 C.ar    1  UNL1        0.0172
     30 C         142.0056  131.8133  155.8497 C.ar    1  UNL1        0.0332
     31 C         143.0344  131.3434  156.8349 C.ar    1  UNL1        0.1675
     32 F         143.0288  129.9184  157.3030 F       1  UNL1       -0.2018
     33 C         144.0690  132.2986  157.3520 C.ar    1  UNL1        0.1686
     34 F         145.0979  131.8288  158.3372 F       1  UNL1       -0.2018
     35 C         144.0747  133.7237  156.8839 C.ar    1  UNL1        0.0467
@<TRIPOS>UNITY_ATOM_ATTR
18 1
charge -1
@<TRIPOS>BOND
     1    18    19   ar
     2    19    20   ar
     3    19    17    1
     4    11    17    1
     5    11    12    1
     6    12    13    1
     7    13    14    1
     8    14     5    1
     9     5     6   ar
    10     6     7   ar
    11     7     8   ar
    12     8     1    1
    13     1     2   am
    14     2     3    2
    15     2    21    1
    16    21    22   ar
    17    22    23   ar
    18    23    24   ar
    19    24    26    1
    20    26    28    1
    21    28    29   ar
    22    29    30   ar
    23    30    31   ar
    24    31    32    1
    25    31    33   ar
    26    33    34    1
    27    33    35   ar
    28    24    25   ar
    29     8     9   ar
    30     9    10   ar
    31    14    15    1
    32    15    16    1
    33    16    11    1
    34    10     5   ar
    35    25    21   ar
    36    35    28   ar
    37     1     4    1
    38    26    27    1
@<TRIPOS>MOLECULE
*****
 35 38 0 0 0
SMALL
GASTEIGER

@<TRIPOS>ATOM
      1 N         141.5144  145.3643  160.5193 N.am    1  UNL1       -0.2765
      2 C         140.4372  144.9886  159.5454 C.2     1  UNL1        0.3050
      3 O         139.4027  143.9715  159.9269 O.2     1  UNL1       -0.2646
      4 H         142.1933  146.0319  160.2689 H       1  UNL1        0.1553
      5 C         141.6428  143.4405  164.5853 C.ar    1  UNL1       -0.0224
      6 C         140.7126  144.5888  164.3279 C.ar    1  UNL1       -0.0030
      7 C         140.6698  145.2300  162.9726 C.ar    1  UNL1        0.0144
      8 C         141.5572  144.7231  161.8746 C.ar    1  UNL1        0.0506
      9 C         142.4873  143.5748  162.1320 C.ar    1  UNL1        0.0144
     10 C         142.5301  142.9336  163.4873 C.ar    1  UNL1       -0.0030
     11 C         141.7712  141.5167  168.6513 C.3     1  UNL1        0.0056
     12 C         140.4751  142.0457  168.1125 C.3     1  UNL1        0.0007
     13 C         140.4323  142.6869  166.7571 C.3     1  UNL1        0.0044
     14 C         141.6856  142.7992  165.9406 C.3     1  UNL1        0.0223
     15 C         142.9816  142.2703  166.4795 C.3     1  UNL1        0.0044
     16 C         143.0244  141.6290  167.8348 C.3     1  UNL1        0.0007
     17 C         141.8140  140.8754  170.0066 C.3     1  UNL1        0.0417
     18 O         139.5531  139.8999  170.8355 O.co2   1  UNL1       -0.5492
     19 C         140.6196  140.9521  170.9107 C.2     1  UNL1        0.0503
     20 O         140.4915  142.0811  171.8901 O.co2   1  UNL1       -0.5492
     21 C         140.3943  145.6298  158.1901 C.ar    1  UNL1        0.3052
     22 N         141.5027  145.6300  157.1794 N.ar    1  UNL1       -0.1010
     23 N         141.0290  146.3838  155.9721 N.ar    1  UNL1       -0.0919
     24 C         139.6279  146.8495  156.2367 C.ar    1  UNL1        0.3126
     25 O         139.2356  146.3836  157.6075 O.2     1  UNL1       -0.4006
     26 N         138.7697  147.6420  155.2958 N.pl3   1  UNL1       -0.2664
     27 H         137.9998  147.2159  154.8544 H       1  UNL1        0.1566
     28 C         139.0846  149.0839  155.0273 C.ar    1  UNL1        0.0541
     29 C         138.4308  150.1589  155.8439 C.ar    1  UNL1        0.0172
     30 C         138.7456  151.6008  155.5754 C.ar    1  UNL1        0.0332
     31 C         139.7143  151.9675  154.4905 C.ar    1  UNL1        0.1675
     32 F         140.0292  153.4092  154.2221 F       1  UNL1       -0.2018
     33 C         140.3681  150.8924  153.6740 C.ar    1  UNL1        0.1686
     34 F         141.3368  151.2591  152.5890 F       1  UNL1       -0.2018
     35 C         140.0533  149.4506  153.9424 C.ar    1  UNL1        0.0467
@<TRIPOS>UNITY_ATOM_ATTR
18 1
charge -1
@<TRIPOS>BOND
     1    18    19   ar
     2    19    20   ar
     3    19    17    1
     4    11    17    1
     5    11    12    1
     6    12    13    1
     7    13    14    1
     8    14     5    1
     9     5     6   ar
    10     6     7   ar
    11     7     8   ar
    12     8     1    1
    13     1     2   am
    14     2     3    2
    15     2    21    1
    16    21    22   ar
    17    22    23   ar
    18    23    24   ar
    19    24    26    1
    20    26    28    1
    21    28    29   ar
    22    29    30   ar
    23    30    31   ar
    24    31    32    1
    25    31    33   ar
    26    33    34    1
    27    33    35   ar
    28    24    25   ar
    29     8     9   ar
    30     9    10   ar
    31    14    15    1
    32    15    16    1
    33    16    11    1
    34    10     5   ar
    35    25    21   ar
    36    35    28   ar
    37     1     4    1
    38    26    27    1
@<TRIPOS>MOLECULE
*****
 35 38 0 0 0
SMALL
GASTEIGER

@<TRIPOS>ATOM
      1 N         139.5936  144.4150  159.9341 N.am    1  UNL1       -0.2765
      2 C         140.5910  144.7857  158.8769 C.2     1  UNL1        0.3050
      3 O         142.0565  144.7896  159.1968 O.2     1  UNL1       -0.2646
      4 H         138.6317  144.4124  159.7242 H       1  UNL1        0.1553
      5 C         140.9976  143.3145  164.0654 C.ar    1  UNL1       -0.0224
      6 C         140.6340  142.2387  163.0855 C.ar    1  UNL1       -0.0030
      7 C         140.1660  142.6055  161.7084 C.ar    1  UNL1        0.0144
      8 C         140.0616  144.0482  161.3112 C.ar    1  UNL1        0.0506
      9 C         140.4252  145.1240  162.2912 C.ar    1  UNL1        0.0144
     10 C         140.8933  144.7572  163.6682 C.ar    1  UNL1       -0.0030
     11 C         142.4017  142.2140  168.1967 C.3     1  UNL1        0.0056
     12 C         143.3839  142.2871  167.0654 C.3     1  UNL1        0.0007
     13 C         142.9159  142.6539  165.6883 C.3     1  UNL1        0.0044
     14 C         141.4657  142.9477  165.4425 C.3     1  UNL1        0.0223
     15 C         140.4835  142.8746  166.5738 C.3     1  UNL1        0.0044
     16 C         140.9515  142.5078  167.9509 C.3     1  UNL1        0.0007
     17 C         142.8698  141.8472  169.5738 C.3     1  UNL1        0.0417
     18 O         143.1979  143.9724  171.0318 O.co2   1  UNL1       -0.5492
     19 C         142.4734  142.6896  170.7498 C.2     1  UNL1        0.0503
     20 O         141.3524  142.2493  171.6440 O.co2   1  UNL1       -0.5492
     21 C         140.1230  145.1525  157.4999 C.ar    1  UNL1        0.3052
     22 N         139.1624  144.3674  156.6568 N.ar    1  UNL1       -0.1010
     23 N         138.9791  145.0985  155.3599 N.ar    1  UNL1       -0.0919
     24 C         139.8264  146.3356  155.4015 C.ar    1  UNL1        0.3126
     25 O         140.5334  146.3690  156.7240 O.2     1  UNL1       -0.4006
     26 N         139.9458  147.3595  154.3118 N.pl3   1  UNL1       -0.2664
     27 H         140.3130  147.1044  153.4347 H       1  UNL1        0.1566
     28 C         139.5057  148.7721  154.5585 C.ar    1  UNL1        0.0541
     29 C         138.7288  149.1103  155.7962 C.ar    1  UNL1        0.0172
     30 C         138.2887  150.5230  156.0429 C.ar    1  UNL1        0.0332
     31 C         138.6256  151.5974  155.0519 C.ar    1  UNL1        0.1675
     32 F         138.1856  153.0099  155.2986 F       1  UNL1       -0.2018
     33 C         139.4026  151.2592  153.8143 C.ar    1  UNL1        0.1686
     34 F         139.7396  152.3335  152.8232 F       1  UNL1       -0.2018
     35 C         139.8427  149.8466  153.5675 C.ar    1  UNL1        0.0467
@<TRIPOS>UNITY_ATOM_ATTR
18 1
charge -1
@<TRIPOS>BOND
     1    18    19   ar
     2    19    20   ar
     3    19    17    1
     4    11    17    1
     5    11    12    1
     6    12    13    1
     7    13    14    1
     8    14     5    1
     9     5     6   ar
    10     6     7   ar
    11     7     8   ar
    12     8     1    1
    13     1     2   am
    14     2     3    2
    15     2    21    1
    16    21    22   ar
    17    22    23   ar
    18    23    24   ar
    19    24    26    1
    20    26    28    1
    21    28    29   ar
    22    29    30   ar
    23    30    31   ar
    24    31    32    1
    25    31    33   ar
    26    33    34    1
    27    33    35   ar
    28    24    25   ar
    29     8     9   ar
    30     9    10   ar
    31    14    15    1
    32    15    16    1
    33    16    11    1
    34    10     5   ar
    35    25    21   ar
    36    35    28   ar
    37     1     4    1
    38    26    27    1
@<TRIPOS>MOLECULE
*****
 35 38 0 0 0
SMALL
GASTEIGER

@<TRIPOS>ATOM
      1 N         143.9340  138.4886  160.3613 N.am    1  UNL1       -0.2765
      2 C         142.8735  138.7198  159.3260 C.2     1  UNL1        0.3050
      3 O         141.5837  139.3831  159.7086 O.2     1  UNL1       -0.2646
      4 H         144.7805  138.0532  160.1101 H       1  UNL1        0.1553
      5 C         143.2460  139.7849  164.6153 C.ar    1  UNL1       -0.0224
      6 C         142.5756  138.5503  164.0897 C.ar    1  UNL1       -0.0030
      7 C         142.8049  138.1182  162.6717 C.ar    1  UNL1        0.0144
      8 C         143.7046  138.9207  161.7793 C.ar    1  UNL1        0.0506
      9 C         144.3751  140.1552  162.3049 C.ar    1  UNL1        0.0144
     10 C         144.1458  140.5873  163.7229 C.ar    1  UNL1       -0.0030
     11 C         142.5581  141.0811  168.8692 C.3     1  UNL1        0.0056
     12 C         142.7593  142.1088  167.7953 C.3     1  UNL1        0.0007
     13 C         142.9886  141.6767  166.3773 C.3     1  UNL1        0.0044
     14 C         143.0167  140.2169  166.0333 C.3     1  UNL1        0.0223
     15 C         142.8155  139.1893  167.1072 C.3     1  UNL1        0.0044
     16 C         142.5862  139.6214  168.5252 C.3     1  UNL1        0.0007
     17 C         142.3288  141.5132  170.2872 C.3     1  UNL1        0.0417
     18 O         139.7738  141.6446  169.8342 O.co2   1  UNL1       -0.5492
     19 C         140.9359  141.7864  170.7721 C.2     1  UNL1        0.0503
     20 O         140.7049  142.2015  172.1949 O.co2   1  UNL1       -0.5492
     21 C         143.1028  138.2877  157.9080 C.ar    1  UNL1        0.3052
     22 N         143.9017  139.0302  156.8782 N.ar    1  UNL1       -0.1010
     23 N         143.8661  138.2386  155.6045 N.ar    1  UNL1       -0.0919
     24 C         143.0453  137.0068  155.8472 C.ar    1  UNL1        0.3126
     25 O         142.5735  137.0371  157.2708 O.2     1  UNL1       -0.4006
     26 N         142.7483  135.9332  154.8426 N.pl3   1  UNL1       -0.2664
     27 H         142.5695  136.1726  153.9046 H       1  UNL1        0.1566
     28 C         142.7238  134.4948  155.2673 C.ar    1  UNL1        0.0541
     29 C         143.8872  133.9135  156.0147 C.ar    1  UNL1        0.0172
     30 C         143.8628  132.4751  156.4393 C.ar    1  UNL1        0.0332
     31 C         142.6749  131.6179  156.1166 C.ar    1  UNL1        0.1675
     32 F         142.6504  130.1795  156.5412 F       1  UNL1       -0.2018
     33 C         141.5115  132.1991  155.3692 C.ar    1  UNL1        0.1686
     34 F         140.3235  131.3420  155.0464 F       1  UNL1       -0.2018
     35 C         141.5360  133.6376  154.9445 C.ar    1  UNL1        0.0467
@<TRIPOS>UNITY_ATOM_ATTR
18 1
charge -1
@<TRIPOS>BOND
     1    18    19   ar
     2    19    20   ar
     3    19    17    1
     4    11    17    1
     5    11    12    1
     6    12    13    1
     7    13    14    1
     8    14     5    1
     9     5     6   ar
    10     6     7   ar
    11     7     8   ar
    12     8     1    1
    13     1     2   am
    14     2     3    2
    15     2    21    1
    16    21    22   ar
    17    22    23   ar
    18    23    24   ar
    19    24    26    1
    20    26    28    1
    21    28    29   ar
    22    29    30   ar
    23    30    31   ar
    24    31    32    1
    25    31    33   ar
    26    33    34    1
    27    33    35   ar
    28    24    25   ar
    29     8     9   ar
    30     9    10   ar
    31    14    15    1
    32    15    16    1
    33    16    11    1
    34    10     5   ar
    35    25    21   ar
    36    35    28   ar
    37     1     4    1
    38    26    27    1
@<TRIPOS>MOLECULE
*****
 35 38 0 0 0
SMALL
GASTEIGER

@<TRIPOS>ATOM
      1 N         143.4749  138.4655  160.3393 N.am    1  UNL1       -0.2765
      2 C         142.5637  138.4763  159.1479 C.2     1  UNL1        0.3050
      3 O         141.1775  139.0365  159.2689 O.2     1  UNL1       -0.2646
      4 H         144.3847  138.0978  160.2599 H       1  UNL1        0.1553
      5 C         142.0500  140.1137  164.2767 C.ar    1  UNL1       -0.0224
      6 C         142.4868  141.0472  163.1869 C.ar    1  UNL1       -0.0030
      7 C         142.9618  140.4977  161.8744 C.ar    1  UNL1        0.0144
      8 C         142.9999  139.0149  161.6518 C.ar    1  UNL1        0.0506
      9 C         142.5631  138.0814  162.7416 C.ar    1  UNL1        0.0144
     10 C         142.0882  138.6308  164.0541 C.ar    1  UNL1       -0.0030
     11 C         140.6250  141.7619  168.2141 C.3     1  UNL1        0.0056
     12 C         140.9807  140.3097  168.0935 C.3     1  UNL1        0.0007
     13 C         141.4557  139.7603  166.7811 C.3     1  UNL1        0.0044
     14 C         141.5750  140.6631  165.5892 C.3     1  UNL1        0.0223
     15 C         141.2193  142.1153  165.7097 C.3     1  UNL1        0.0044
     16 C         140.7444  142.6647  167.0222 C.3     1  UNL1        0.0007
     17 C         140.1501  142.3113  169.5265 C.3     1  UNL1        0.0417
     18 O         139.9844  144.8007  170.2515 O.co2   1  UNL1       -0.5492
     19 C         140.7872  143.5428  170.0988 C.2     1  UNL1        0.0503
     20 O         142.2271  143.5164  170.5183 O.co2   1  UNL1       -0.5492
     21 C         143.0387  137.9269  157.8354 C.ar    1  UNL1        0.3052
     22 N         143.8461  138.6666  156.8103 N.ar    1  UNL1       -0.1010
     23 N         144.0961  137.7382  155.6589 N.ar    1  UNL1       -0.0919
     24 C         143.4432  136.4246  155.9725 C.ar    1  UNL1        0.3126
     25 O         142.7897  136.5412  157.3177 O.2     1  UNL1       -0.4006
     26 N         143.4437  135.2081  155.0950 N.pl3   1  UNL1       -0.2664
     27 H         143.5084  135.3062  154.1176 H       1  UNL1        0.1566
     28 C         143.3455  133.8420  155.7068 C.ar    1  UNL1        0.0541
     29 C         142.2423  132.9131  155.2945 C.ar    1  UNL1        0.0172
     30 C         142.1441  131.5470  155.9063 C.ar    1  UNL1        0.0332
     31 C         143.1492  131.1099  156.9304 C.ar    1  UNL1        0.1675
     32 F         143.0510  129.7439  157.5421 F       1  UNL1       -0.2018
     33 C         144.2524  132.0388  157.3427 C.ar    1  UNL1        0.1686
     34 F         145.2576  131.6017  158.3668 F       1  UNL1       -0.2018
     35 C         144.3506  133.4048  156.7309 C.ar    1  UNL1        0.0467
@<TRIPOS>UNITY_ATOM_ATTR
18 1
charge -1
@<TRIPOS>BOND
     1    18    19   ar
     2    19    20   ar
     3    19    17    1
     4    11    17    1
     5    11    12    1
     6    12    13    1
     7    13    14    1
     8    14     5    1
     9     5     6   ar
    10     6     7   ar
    11     7     8   ar
    12     8     1    1
    13     1     2   am
    14     2     3    2
    15     2    21    1
    16    21    22   ar
    17    22    23   ar
    18    23    24   ar
    19    24    26    1
    20    26    28    1
    21    28    29   ar
    22    29    30   ar
    23    30    31   ar
    24    31    32    1
    25    31    33   ar
    26    33    34    1
    27    33    35   ar
    28    24    25   ar
    29     8     9   ar
    30     9    10   ar
    31    14    15    1
    32    15    16    1
    33    16    11    1
    34    10     5   ar
    35    25    21   ar
    36    35    28   ar
    37     1     4    1
    38    26    27    1
@<TRIPOS>MOLECULE
*****
 35 38 0 0 0
SMALL
GASTEIGER

@<TRIPOS>ATOM
      1 N         141.1694  144.3575  160.0231 N.am    1  UNL1       -0.2765
      2 C         139.9388  143.9541  159.2664 C.2     1  UNL1        0.3050
      3 O         138.8521  143.1845  159.9572 O.2     1  UNL1       -0.2646
      4 H         141.8826  144.8626  159.5697 H       1  UNL1        0.1553
      5 C         141.6018  143.2593  164.3656 C.ar    1  UNL1       -0.0224
      6 C         141.2969  144.6756  163.9769 C.ar    1  UNL1       -0.0030
      7 C         141.1528  145.0417  162.5294 C.ar    1  UNL1        0.0144
      8 C         141.3135  143.9915  161.4706 C.ar    1  UNL1        0.0506
      9 C         141.6184  142.5751  161.8592 C.ar    1  UNL1        0.0144
     10 C         141.7625  142.2091  163.3067 C.ar    1  UNL1       -0.0030
     11 C         142.0341  142.1610  168.7080 C.3     1  UNL1        0.0056
     12 C         143.2473  142.2367  167.8292 C.3     1  UNL1        0.0007
     13 C         143.1032  142.6028  166.3817 C.3     1  UNL1        0.0044
     14 C         141.7459  142.8932  165.8130 C.3     1  UNL1        0.0223
     15 C         140.5327  142.8174  166.6919 C.3     1  UNL1        0.0044
     16 C         140.6768  142.4513  168.1394 C.3     1  UNL1        0.0007
     17 C         142.1783  141.7949  170.1555 C.3     1  UNL1        0.0417
     18 O         140.3594  140.0081  170.6549 O.co2   1  UNL1       -0.5492
     19 C         140.9806  141.3438  170.9379 C.2     1  UNL1        0.0503
     20 O         140.4041  142.2285  172.0032 O.co2   1  UNL1       -0.5492
     21 C         139.7946  144.3202  157.8189 C.ar    1  UNL1        0.3052
     22 N         138.9063  143.6381  156.8212 N.ar    1  UNL1       -0.1010
     23 N         139.0762  144.3290  155.5006 N.ar    1  UNL1       -0.0919
     24 C         140.0696  145.4381  155.6822 C.ar    1  UNL1        0.3126
     25 O         140.5137  145.4327  157.1150 O.2     1  UNL1       -0.4006
     26 N         140.5369  146.3862  154.6180 N.pl3   1  UNL1       -0.2664
     27 H         141.1752  146.0816  153.9331 H       1  UNL1        0.1566
     28 C         140.0318  147.7985  154.5971 C.ar    1  UNL1        0.0541
     29 C         140.4542  148.7300  153.5000 C.ar    1  UNL1        0.0172
     30 C         139.9491  150.1423  153.4792 C.ar    1  UNL1        0.0332
     31 C         139.0215  150.6230  154.5555 C.ar    1  UNL1        0.1675
     32 F         138.5164  152.0351  154.5347 F       1  UNL1       -0.2018
     33 C         138.5991  149.6914  155.6527 C.ar    1  UNL1        0.1686
     34 F         137.6715  150.1720  156.7291 F       1  UNL1       -0.2018
     35 C         139.1042  148.2792  155.6735 C.ar    1  UNL1        0.0467
@<TRIPOS>UNITY_ATOM_ATTR
18 1
charge -1
@<TRIPOS>BOND
     1    18    19   ar
     2    19    20   ar
     3    19    17    1
     4    11    17    1
     5    11    12    1
     6    12    13    1
     7    13    14    1
     8    14     5    1
     9     5     6   ar
    10     6     7   ar
    11     7     8   ar
    12     8     1    1
    13     1     2   am
    14     2     3    2
    15     2    21    1
    16    21    22   ar
    17    22    23   ar
    18    23    24   ar
    19    24    26    1
    20    26    28    1
    21    28    29   ar
    22    29    30   ar
    23    30    31   ar
    24    31    32    1
    25    31    33   ar
    26    33    34    1
    27    33    35   ar
    28    24    25   ar
    29     8     9   ar
    30     9    10   ar
    31    14    15    1
    32    15    16    1
    33    16    11    1
    34    10     5   ar
    35    25    21   ar
    36    35    28   ar
    37     1     4    1
    38    26    27    1
@<TRIPOS>MOLECULE
*****
 35 38 0 0 0
SMALL
GASTEIGER

@<TRIPOS>ATOM
      1 N         143.2483  138.2273  160.6309 N.am    1  UNL1       -0.2765
      2 C         142.7688  139.1271  159.5307 C.2     1  UNL1        0.3050
      3 O         141.9103  140.3142  159.8531 O.2     1  UNL1       -0.2646
      4 H         143.8117  137.4482  160.4192 H       1  UNL1        0.1553
      5 C         142.1112  139.0889  164.8987 C.ar    1  UNL1       -0.0224
      6 C         141.1146  138.4628  163.9688 C.ar    1  UNL1       -0.0030
      7 C         141.4937  138.1756  162.5462 C.ar    1  UNL1        0.0144
      8 C         142.8693  138.5145  162.0535 C.ar    1  UNL1        0.0506
      9 C         143.8659  139.1406  162.9834 C.ar    1  UNL1        0.0144
     10 C         143.4869  139.4278  164.4060 C.ar    1  UNL1       -0.0030
     11 C         140.9742  139.9505  169.1666 C.3     1  UNL1        0.0056
     12 C         142.3834  139.5626  168.8296 C.3     1  UNL1        0.0007
     13 C         142.7624  139.2754  167.4069 C.3     1  UNL1        0.0044
     14 C         141.7322  139.3761  166.3214 C.3     1  UNL1        0.0223
     15 C         140.3230  139.7640  166.6584 C.3     1  UNL1        0.0044
     16 C         139.9440  140.0512  168.0810 C.3     1  UNL1        0.0007
     17 C         140.5952  140.2377  170.5892 C.3     1  UNL1        0.0417
     18 O         141.7655  142.1916  171.8394 O.co2   1  UNL1       -0.5492
     19 C         140.5829  141.6511  171.0914 C.2     1  UNL1        0.0503
     20 O         139.3881  142.5240  170.8457 O.co2   1  UNL1       -0.5492
     21 C         143.1479  138.8399  158.1081 C.ar    1  UNL1        0.3052
     22 N         143.2731  137.4807  157.4862 N.ar    1  UNL1       -0.1010
     23 N         143.6708  137.6622  156.0513 N.ar    1  UNL1       -0.0919
     24 C         143.7914  139.1337  155.7863 C.ar    1  UNL1        0.3126
     25 O         143.4682  139.8616  157.0575 O.2     1  UNL1       -0.4006
     26 N         144.1688  139.7663  154.4797 N.pl3   1  UNL1       -0.2664
     27 H         143.5625  139.6992  153.7070 H       1  UNL1        0.1566
     28 C         145.4701  140.5011  154.3504 C.ar    1  UNL1        0.0541
     29 C         146.0676  140.7354  152.9946 C.ar    1  UNL1        0.0172
     30 C         147.3689  141.4702  152.8653 C.ar    1  UNL1        0.0332
     31 C         148.0727  141.9709  154.0917 C.ar    1  UNL1        0.1675
     32 F         149.3738  142.7057  153.9624 F       1  UNL1       -0.2018
     33 C         147.4751  141.7366  155.4475 C.ar    1  UNL1        0.1686
     34 F         148.1788  142.2372  156.6740 F       1  UNL1       -0.2018
     35 C         146.1739  141.0018  155.5768 C.ar    1  UNL1        0.0467
@<TRIPOS>UNITY_ATOM_ATTR
18 1
charge -1
@<TRIPOS>BOND
     1    18    19   ar
     2    19    20   ar
     3    19    17    1
     4    11    17    1
     5    11    12    1
     6    12    13    1
     7    13    14    1
     8    14     5    1
     9     5     6   ar
    10     6     7   ar
    11     7     8   ar
    12     8     1    1
    13     1     2   am
    14     2     3    2
    15     2    21    1
    16    21    22   ar
    17    22    23   ar
    18    23    24   ar
    19    24    26    1
    20    26    28    1
    21    28    29   ar
    22    29    30   ar
    23    30    31   ar
    24    31    32    1
    25    31    33   ar
    26    33    34    1
    27    33    35   ar
    28    24    25   ar
    29     8     9   ar
    30     9    10   ar
    31    14    15    1
    32    15    16    1
    33    16    11    1
    34    10     5   ar
    35    25    21   ar
    36    35    28   ar
    37     1     4    1
    38    26    27    1
@<TRIPOS>MOLECULE
*****
 35 38 0 0 0
SMALL
GASTEIGER

@<TRIPOS>ATOM
      1 N         141.9515  138.6045  160.0832 N.am    1  UNL1       -0.2765
      2 C         140.5898  138.4986  159.4633 C.2     1  UNL1        0.3050
      3 O         139.3689  138.8100  160.2773 O.2     1  UNL1       -0.2646
      4 H         142.7528  138.4001  159.5490 H       1  UNL1        0.1553
      5 C         142.3744  139.8561  164.3849 C.ar    1  UNL1       -0.0224
      6 C         142.3570  138.3998  164.0258 C.ar    1  UNL1       -0.0030
      7 C         142.2160  137.9826  162.5919 C.ar    1  UNL1        0.0144
      8 C         142.0925  139.0217  161.5171 C.ar    1  UNL1        0.0506
      9 C         142.1100  140.4779  161.8763 C.ar    1  UNL1        0.0144
     10 C         142.2509  140.8951  163.3102 C.ar    1  UNL1       -0.0030
     11 C         142.7973  141.1077  168.6866 C.3     1  UNL1        0.0056
     12 C         142.9764  142.1163  167.5910 C.3     1  UNL1        0.0007
     13 C         142.8354  141.6991  166.1571 C.3     1  UNL1        0.0044
     14 C         142.5154  140.2733  165.8188 C.3     1  UNL1        0.0223
     15 C         142.3364  139.2646  166.9145 C.3     1  UNL1        0.0044
     16 C         142.4773  139.6818  168.3484 C.3     1  UNL1        0.0007
     17 C         142.9383  141.5249  170.1205 C.3     1  UNL1        0.0417
     18 O         140.8829  141.6005  171.7079 O.co2   1  UNL1       -0.5492
     19 C         141.8402  142.2986  170.7879 C.2     1  UNL1        0.0503
     20 O         141.6993  143.7705  170.5354 O.co2   1  UNL1       -0.5492
     21 C         140.4488  138.0814  158.0294 C.ar    1  UNL1        0.3052
     22 N         139.2882  138.3911  157.1310 N.ar    1  UNL1       -0.1010
     23 N         139.5658  137.7824  155.7885 N.ar    1  UNL1       -0.0919
     24 C         140.8980  137.0964  155.8571 C.ar    1  UNL1        0.3126
     25 O         141.4438  137.2812  157.2421 O.2     1  UNL1       -0.4006
     26 N         141.5670  136.3557  154.7374 N.pl3   1  UNL1       -0.2664
     27 H         141.5186  136.7048  153.8182 H       1  UNL1        0.1566
     28 C         142.3098  135.0831  155.0183 C.ar    1  UNL1        0.0541
     29 C         142.2189  133.9342  154.0584 C.ar    1  UNL1        0.0172
     30 C         142.9616  132.6616  154.3392 C.ar    1  UNL1        0.0332
     31 C         143.7953  132.5380  155.5801 C.ar    1  UNL1        0.1675
     32 F         144.5380  131.2655  155.8609 F       1  UNL1       -0.2018
     33 C         143.8862  133.6870  156.5400 C.ar    1  UNL1        0.1686
     34 F         144.7199  133.5635  157.7809 F       1  UNL1       -0.2018
     35 C         143.1435  134.9595  156.2592 C.ar    1  UNL1        0.0467
@<TRIPOS>UNITY_ATOM_ATTR
18 1
charge -1
@<TRIPOS>BOND
     1    18    19   ar
     2    19    20   ar
     3    19    17    1
     4    11    17    1
     5    11    12    1
     6    12    13    1
     7    13    14    1
     8    14     5    1
     9     5     6   ar
    10     6     7   ar
    11     7     8   ar
    12     8     1    1
    13     1     2   am
    14     2     3    2
    15     2    21    1
    16    21    22   ar
    17    22    23   ar
    18    23    24   ar
    19    24    26    1
    20    26    28    1
    21    28    29   ar
    22    29    30   ar
    23    30    31   ar
    24    31    32    1
    25    31    33   ar
    26    33    34    1
    27    33    35   ar
    28    24    25   ar
    29     8     9   ar
    30     9    10   ar
    31    14    15    1
    32    15    16    1
    33    16    11    1
    34    10     5   ar
    35    25    21   ar
    36    35    28   ar
    37     1     4    1
    38    26    27    1
@<TRIPOS>MOLECULE
*****
 35 38 0 0 0
SMALL
GASTEIGER

@<TRIPOS>ATOM
      1 N         143.5599  139.7786  160.2426 N.am    1  UNL1       -0.2765
      2 C         143.9481  140.9606  159.4047 C.2     1  UNL1        0.3050
      3 O         144.1678  142.2972  160.0494 O.2     1  UNL1       -0.2646
      4 H         143.4157  138.9014  159.8194 H       1  UNL1        0.1553
      5 C         143.0540  140.2418  164.6900 C.ar    1  UNL1       -0.0224
      6 C         141.8742  140.4109  163.7793 C.ar    1  UNL1       -0.0030
      7 C         142.0428  140.2565  162.2968 C.ar    1  UNL1        0.0144
      8 C         143.3912  139.9330  161.7250 C.ar    1  UNL1        0.0506
      9 C         144.5711  139.7639  162.6357 C.ar    1  UNL1        0.0144
     10 C         144.4024  139.9183  164.1182 C.ar    1  UNL1       -0.0030
     11 C         142.5481  140.7050  169.1374 C.3     1  UNL1        0.0056
     12 C         142.6737  139.3369  168.5353 C.3     1  UNL1        0.0007
     13 C         142.8423  139.1825  167.0528 C.3     1  UNL1        0.0044
     14 C         142.8854  140.3962  166.1724 C.3     1  UNL1        0.0223
     15 C         142.7598  141.7642  166.7745 C.3     1  UNL1        0.0044
     16 C         142.5912  141.9186  168.2570 C.3     1  UNL1        0.0007
     17 C         142.3795  140.8594  170.6199 C.3     1  UNL1        0.0417
     18 O         142.7063  143.3950  171.0822 O.co2   1  UNL1       -0.5492
     19 C         141.8725  142.1524  171.1864 C.2     1  UNL1        0.0503
     20 O         140.5317  142.2029  171.8571 O.co2   1  UNL1       -0.5492
     21 C         144.1167  140.8062  157.9223 C.ar    1  UNL1        0.3052
     22 N         144.0679  139.5159  157.1590 N.ar    1  UNL1       -0.1010
     23 N         144.2848  139.8272  155.7078 N.ar    1  UNL1       -0.0919
     24 C         144.4677  141.3100  155.5741 C.ar    1  UNL1        0.3126
     25 O         144.3638  141.9152  156.9427 O.2     1  UNL1       -0.4006
     26 N         144.7116  142.0567  154.2962 N.pl3   1  UNL1       -0.2664
     27 H         143.9747  142.1938  153.6579 H       1  UNL1        0.1566
     28 C         146.0781  142.5946  153.9910 C.ar    1  UNL1        0.0541
     29 C         146.2259  143.8855  153.2415 C.ar    1  UNL1        0.0172
     30 C         147.5925  144.4233  152.9362 C.ar    1  UNL1        0.0332
     31 C         148.8113  143.6703  153.3804 C.ar    1  UNL1        0.1675
     32 F         150.1778  144.2082  153.0751 F       1  UNL1       -0.2018
     33 C         148.6636  142.3794  154.1299 C.ar    1  UNL1        0.1686
     34 F         149.8824  141.6263  154.5742 F       1  UNL1       -0.2018
     35 C         147.2970  141.8416  154.4352 C.ar    1  UNL1        0.0467
@<TRIPOS>UNITY_ATOM_ATTR
18 1
charge -1
@<TRIPOS>BOND
     1    18    19   ar
     2    19    20   ar
     3    19    17    1
     4    11    17    1
     5    11    12    1
     6    12    13    1
     7    13    14    1
     8    14     5    1
     9     5     6   ar
    10     6     7   ar
    11     7     8   ar
    12     8     1    1
    13     1     2   am
    14     2     3    2
    15     2    21    1
    16    21    22   ar
    17    22    23   ar
    18    23    24   ar
    19    24    26    1
    20    26    28    1
    21    28    29   ar
    22    29    30   ar
    23    30    31   ar
    24    31    32    1
    25    31    33   ar
    26    33    34    1
    27    33    35   ar
    28    24    25   ar
    29     8     9   ar
    30     9    10   ar
    31    14    15    1
    32    15    16    1
    33    16    11    1
    34    10     5   ar
    35    25    21   ar
    36    35    28   ar
    37     1     4    1
    38    26    27    1
