@<TRIPOS>MOLECULE
*****
 37 40 0 0 0
SMALL
GASTEIGER

@<TRIPOS>ATOM
      1 C         143.0740  143.3234  161.7485 C.ar    1  UNL1        0.0008
      2 C         144.0532  144.0390  162.6310 C.ar    1  UNL1       -0.0024
      3 C         143.5818  145.1348  163.5404 C.ar    1  UNL1        0.0028
      4 C         142.1311  145.5151  163.5671 C.ar    1  UNL1        0.0369
      5 C         141.1517  144.7995  162.6845 C.ar    1  UNL1        0.1389
      6 C         141.6232  143.7037  161.7752 C.ar    1  UNL1        0.0343
      7 C         143.5454  142.2276  160.8391 C.3     1  UNL1        0.1239
      8 C         142.0689  140.0976  160.6570 C.2     1  UNL1        0.4100
      9 O         141.1151  140.8351  159.7646 O.2     1  UNL1       -0.2258
     10 N         143.2841  140.7939  161.1942 N.am    1  UNL1       -0.2363
     11 O         141.8076  138.6639  161.0121 O.3     1  UNL1       -0.4101
     12 C         138.4722  137.3231  165.8159 C.3     1  UNL1        0.0310
     13 C         139.3061  137.6583  164.6150 C.ar    1  UNL1       -0.0217
     14 C         140.7705  137.3339  164.6045 C.ar    1  UNL1       -0.0011
     15 C         141.6044  137.6691  163.4036 C.ar    1  UNL1        0.0373
     16 C         140.9738  138.3287  162.2130 C.ar    1  UNL1        0.1500
     17 C         139.5093  138.6531  162.2235 C.ar    1  UNL1        0.0373
     18 C         138.6755  138.3178  163.4245 C.ar    1  UNL1       -0.0011
     19 C         144.2380  140.0564  162.0866 C.3     1  UNL1        0.1388
     20 C         144.2296  140.3091  163.5651 C.2     1  UNL1        0.0706
     21 O         142.9720  140.7708  164.2400 O.co2   1  UNL1       -0.5474
     22 O         145.4788  140.1000  164.3688 O.co2   1  UNL1       -0.5474
     23 O         139.7010  145.1798  162.7113 O.3     1  UNL1       -0.4689
     24 C         138.8337  144.7489  163.8568 C.3     1  UNL1        0.2537
     25 C         139.1744  143.5101  164.6309 C.ar    1  UNL1        0.1359
     26 N         140.1991  143.4058  165.7215 N.ar    1  UNL1       -0.2093
     27 C         140.2083  141.9894  166.2150 C.ar    1  UNL1        0.2291
     28 O         139.1893  141.2181  165.4295 O.2     1  UNL1       -0.4391
     29 C         138.5504  142.1581  164.4505 C.ar    1  UNL1        0.1421
     30 C         137.4760  141.8074  163.4642 C.3     1  UNL1        0.0740
     31 C         141.0829  141.4405  167.3030 C.ar    1  UNL1        0.0544
     32 C         141.2557  139.9578  167.4500 C.ar    1  UNL1        0.0047
     33 C         142.1303  139.4087  168.5380 C.ar    1  UNL1        0.0010
     34 C         142.8322  140.3426  169.4790 C.ar    1  UNL1        0.0114
     35 C         142.6593  141.8254  169.3319 C.ar    1  UNL1        0.0578
     36 CL        143.3612  142.7592  170.2729 Cl      1  UNL1       -0.0822
     37 C         141.7847  142.3743  168.2439 C.ar    1  UNL1        0.0160
@<TRIPOS>UNITY_ATOM_ATTR
21 1
charge -1
@<TRIPOS>BOND
     1    12    13    1
     2    13    14   ar
     3    14    15   ar
     4    15    16   ar
     5    16    11    1
     6    11     8    1
     7     8     9    2
     8     8    10   am
     9    10    19    1
    10    19    20    1
    11    20    21   ar
    12    20    22   ar
    13    10     7    1
    14     7     1    1
    15     1     2   ar
    16     2     3   ar
    17     3     4   ar
    18     4     5   ar
    19     5    23    1
    20    23    24    1
    21    24    25    1
    22    25    26   ar
    23    26    27   ar
    24    27    31    1
    25    31    32   ar
    26    32    33   ar
    27    33    34   ar
    28    34    35   ar
    29    35    36    1
    30    35    37   ar
    31    27    28   ar
    32    28    29   ar
    33    29    30    1
    34     5     6   ar
    35    16    17   ar
    36    17    18   ar
    37    18    13   ar
    38     6     1   ar
    39    29    25   ar
    40    37    31   ar
@<TRIPOS>MOLECULE
*****
 37 40 0 0 0
SMALL
GASTEIGER

@<TRIPOS>ATOM
      1 C         143.1863  143.1244  160.3011 C.ar    1  UNL1        0.0008
      2 C         142.6256  143.2972  158.9206 C.ar    1  UNL1       -0.0024
      3 C         141.4758  144.2324  158.6897 C.ar    1  UNL1        0.0028
      4 C         140.8867  144.9948  159.8393 C.ar    1  UNL1        0.0369
      5 C         141.4474  144.8220  161.2198 C.ar    1  UNL1        0.1389
      6 C         142.5972  143.8868  161.4507 C.ar    1  UNL1        0.0343
      7 C         144.3361  142.1892  160.5320 C.3     1  UNL1        0.1239
      8 C         145.0381  140.8699  162.6572 C.2     1  UNL1        0.4100
      9 O         146.0705  141.9138  162.9643 O.2     1  UNL1       -0.2258
     10 N         144.1709  141.0076  161.4410 N.am    1  UNL1       -0.2363
     11 O         144.8729  139.6882  163.5663 O.3     1  UNL1       -0.4101
     12 C         141.7167  140.2253  168.6407 C.3     1  UNL1        0.0310
     13 C         142.5058  140.0910  167.3721 C.ar    1  UNL1       -0.0217
     14 C         142.9725  138.7395  166.9186 C.ar    1  UNL1       -0.0011
     15 C         143.7616  138.6053  165.6500 C.ar    1  UNL1        0.0373
     16 C         144.0839  139.8225  164.8348 C.ar    1  UNL1        0.1500
     17 C         143.6171  141.1740  165.2883 C.ar    1  UNL1        0.0373
     18 C         142.8281  141.3082  166.5570 C.ar    1  UNL1       -0.0011
     19 C         143.1386  139.9636  161.1339 C.3     1  UNL1        0.1388
     20 C         143.5435  138.6806  160.4706 C.2     1  UNL1        0.0706
     21 O         144.0513  137.5366  161.2973 O.co2   1  UNL1       -0.5474
     22 O         143.4407  138.5417  158.9806 O.co2   1  UNL1       -0.5474
     23 O         140.8582  145.5845  162.3694 O.3     1  UNL1       -0.4689
     24 C         141.0845  145.1144  163.7758 C.3     1  UNL1        0.2537
     25 C         140.3504  143.9126  164.2921 C.ar    1  UNL1        0.1359
     26 N         140.7028  142.4801  164.0203 N.ar    1  UNL1       -0.2093
     27 C         139.7053  141.6143  164.7312 C.ar    1  UNL1        0.2291
     28 O         138.7363  142.5117  165.4424 O.2     1  UNL1       -0.4391
     29 C         139.1351  143.9322  165.1711 C.ar    1  UNL1        0.1421
     30 C         138.4404  145.1570  165.6879 C.3     1  UNL1        0.0740
     31 C         139.6809  140.1146  164.7309 C.ar    1  UNL1        0.0544
     32 C         140.6105  139.3496  163.8361 C.ar    1  UNL1        0.0047
     33 C         140.5862  137.8498  163.8357 C.ar    1  UNL1        0.0010
     34 C         139.6323  137.1150  164.7303 C.ar    1  UNL1        0.0114
     35 C         138.7027  137.8800  165.6251 C.ar    1  UNL1        0.0578
     36 CL        137.7488  137.1452  166.5196 Cl      1  UNL1       -0.0822
     37 C         138.7271  139.3798  165.6254 C.ar    1  UNL1        0.0160
@<TRIPOS>UNITY_ATOM_ATTR
21 1
charge -1
@<TRIPOS>BOND
     1    12    13    1
     2    13    14   ar
     3    14    15   ar
     4    15    16   ar
     5    16    11    1
     6    11     8    1
     7     8     9    2
     8     8    10   am
     9    10    19    1
    10    19    20    1
    11    20    21   ar
    12    20    22   ar
    13    10     7    1
    14     7     1    1
    15     1     2   ar
    16     2     3   ar
    17     3     4   ar
    18     4     5   ar
    19     5    23    1
    20    23    24    1
    21    24    25    1
    22    25    26   ar
    23    26    27   ar
    24    27    31    1
    25    31    32   ar
    26    32    33   ar
    27    33    34   ar
    28    34    35   ar
    29    35    36    1
    30    35    37   ar
    31    27    28   ar
    32    28    29   ar
    33    29    30    1
    34     5     6   ar
    35    16    17   ar
    36    17    18   ar
    37    18    13   ar
    38     6     1   ar
    39    29    25   ar
    40    37    31   ar
@<TRIPOS>MOLECULE
*****
 37 40 0 0 0
SMALL
GASTEIGER

@<TRIPOS>ATOM
      1 C         140.2008  143.6918  160.9954 C.ar    1  UNL1        0.0008
      2 C         140.1587  145.0899  161.5371 C.ar    1  UNL1       -0.0024
      3 C         139.0863  145.4859  162.5083 C.ar    1  UNL1        0.0028
      4 C         138.0560  144.4839  162.9377 C.ar    1  UNL1        0.0369
      5 C         138.0981  143.0857  162.3959 C.ar    1  UNL1        0.1389
      6 C         139.1705  142.6897  161.4248 C.ar    1  UNL1        0.0343
      7 C         141.2732  143.2958  160.0243 C.3     1  UNL1        0.1239
      8 C         142.4265  140.9945  160.3769 C.2     1  UNL1        0.4100
      9 O         141.2290  140.3050  159.7933 O.2     1  UNL1       -0.2258
     10 N         142.4486  142.4900  160.4923 N.am    1  UNL1       -0.2363
     11 O         143.6019  140.1887  160.8450 O.3     1  UNL1       -0.4101
     12 C         143.8188  138.2087  166.5047 C.3     1  UNL1        0.0310
     13 C         143.7645  138.7037  165.0898 C.ar    1  UNL1       -0.0217
     14 C         144.8419  139.6087  164.5700 C.ar    1  UNL1       -0.0011
     15 C         144.7877  140.1037  163.1551 C.ar    1  UNL1        0.0373
     16 C         143.6561  139.6937  162.2599 C.ar    1  UNL1        0.1500
     17 C         142.5787  138.7887  162.7797 C.ar    1  UNL1        0.0373
     18 C         142.6329  138.2937  164.1946 C.ar    1  UNL1       -0.0011
     19 C         143.6461  143.1795  161.0759 C.3     1  UNL1        0.1388
     20 C         143.5706  143.7808  162.4480 C.2     1  UNL1        0.0706
     21 O         142.8179  143.0742  163.5362 O.co2   1  UNL1       -0.5474
     22 O         144.2479  145.0887  162.7320 O.co2   1  UNL1       -0.5474
     23 O         137.0679  142.0836  162.8253 O.3     1  UNL1       -0.4689
     24 C         137.4182  140.6263  162.8849 C.3     1  UNL1        0.2537
     25 C         138.2362  140.0977  164.0257 C.ar    1  UNL1        0.1359
     26 N         138.5598  140.8317  165.2932 N.ar    1  UNL1       -0.2093
     27 C         139.3979  139.9299  166.1501 C.ar    1  UNL1        0.2291
     28 O         139.5923  138.6384  165.4122 O.2     1  UNL1       -0.4391
     29 C         138.8743  138.7421  164.0992 C.ar    1  UNL1        0.1421
     30 C         138.8063  137.6773  163.0450 C.3     1  UNL1        0.0740
     31 C         139.9454  140.2613  167.5066 C.ar    1  UNL1        0.0544
     32 C         139.1053  140.0393  168.7293 C.ar    1  UNL1        0.0047
     33 C         139.6527  140.3706  170.0859 C.ar    1  UNL1        0.0010
     34 C         141.0405  140.9241  170.2199 C.ar    1  UNL1        0.0114
     35 C         141.8807  141.1461  168.9972 C.ar    1  UNL1        0.0578
     36 CL        143.2684  141.6995  169.1312 Cl      1  UNL1       -0.0822
     37 C         141.3331  140.8147  167.6406 C.ar    1  UNL1        0.0160
@<TRIPOS>UNITY_ATOM_ATTR
21 1
charge -1
@<TRIPOS>BOND
     1    12    13    1
     2    13    14   ar
     3    14    15   ar
     4    15    16   ar
     5    16    11    1
     6    11     8    1
     7     8     9    2
     8     8    10   am
     9    10    19    1
    10    19    20    1
    11    20    21   ar
    12    20    22   ar
    13    10     7    1
    14     7     1    1
    15     1     2   ar
    16     2     3   ar
    17     3     4   ar
    18     4     5   ar
    19     5    23    1
    20    23    24    1
    21    24    25    1
    22    25    26   ar
    23    26    27   ar
    24    27    31    1
    25    31    32   ar
    26    32    33   ar
    27    33    34   ar
    28    34    35   ar
    29    35    36    1
    30    35    37   ar
    31    27    28   ar
    32    28    29   ar
    33    29    30    1
    34     5     6   ar
    35    16    17   ar
    36    17    18   ar
    37    18    13   ar
    38     6     1   ar
    39    29    25   ar
    40    37    31   ar
@<TRIPOS>MOLECULE
*****
 37 40 0 0 0
SMALL
GASTEIGER

@<TRIPOS>ATOM
      1 C         143.5418  143.4851  161.7821 C.ar    1  UNL1        0.0008
      2 C         144.3461  144.2055  162.8233 C.ar    1  UNL1       -0.0024
      3 C         143.6906  145.2301  163.7011 C.ar    1  UNL1        0.0028
      4 C         142.2309  145.5343  163.5377 C.ar    1  UNL1        0.0369
      5 C         141.4266  144.8139  162.4964 C.ar    1  UNL1        0.1389
      6 C         142.0821  143.7893  161.6186 C.ar    1  UNL1        0.0343
      7 C         144.1973  142.4605  160.9042 C.3     1  UNL1        0.1239
      8 C         144.2887  140.1834  162.1518 C.2     1  UNL1        0.4100
      9 O         145.1806  140.7902  163.1941 O.2     1  UNL1       -0.2258
     10 N         143.7971  141.0186  161.0069 N.am    1  UNL1       -0.2363
     11 O         143.8885  138.7414  162.2545 O.3     1  UNL1       -0.4101
     12 C         138.8754  137.2204  165.1794 C.3     1  UNL1        0.0310
     13 C         140.1287  137.6007  164.4481 C.ar    1  UNL1       -0.0217
     14 C         140.2002  137.4557  162.9569 C.ar    1  UNL1       -0.0011
     15 C         141.4535  137.8359  162.2257 C.ar    1  UNL1        0.0373
     16 C         142.6353  138.3612  162.9857 C.ar    1  UNL1        0.1500
     17 C         142.5637  138.5062  164.4770 C.ar    1  UNL1        0.0373
     18 C         141.3104  138.1259  165.2082 C.ar    1  UNL1       -0.0011
     19 C         142.9052  140.4117  159.9646 C.3     1  UNL1        0.1388
     20 C         143.4899  139.5427  158.8909 C.2     1  UNL1        0.0706
     21 O         144.4385  140.1273  157.8866 O.co2   1  UNL1       -0.5474
     22 O         143.1261  138.0892  158.8214 O.co2   1  UNL1       -0.5474
     23 O         139.9669  145.1181  162.3330 O.3     1  UNL1       -0.4689
     24 C         138.9576  144.4483  163.2176 C.3     1  UNL1        0.2537
     25 C         139.3957  143.3958  164.1924 C.ar    1  UNL1        0.1359
     26 N         139.7660  143.6230  165.6281 N.ar    1  UNL1       -0.2093
     27 C         140.1397  142.2989  166.2257 C.ar    1  UNL1        0.2291
     28 O         140.0004  141.2532  165.1592 O.2     1  UNL1       -0.4391
     29 C         139.5406  141.9312  163.9025 C.ar    1  UNL1        0.1421
     30 C         139.2727  141.2620  162.5871 C.3     1  UNL1        0.0740
     31 C         140.5760  142.0620  167.6410 C.ar    1  UNL1        0.0544
     32 C         140.4175  143.1455  168.6661 C.ar    1  UNL1        0.0047
     33 C         140.8538  142.9087  170.0816 C.ar    1  UNL1        0.0010
     34 C         141.4488  141.5882  170.4719 C.ar    1  UNL1        0.0114
     35 C         141.6074  140.5046  169.4469 C.ar    1  UNL1        0.0578
     36 CL        142.2023  139.1842  169.8372 Cl      1  UNL1       -0.0822
     37 C         141.1710  140.7415  168.0314 C.ar    1  UNL1        0.0160
@<TRIPOS>UNITY_ATOM_ATTR
21 1
charge -1
@<TRIPOS>BOND
     1    12    13    1
     2    13    14   ar
     3    14    15   ar
     4    15    16   ar
     5    16    11    1
     6    11     8    1
     7     8     9    2
     8     8    10   am
     9    10    19    1
    10    19    20    1
    11    20    21   ar
    12    20    22   ar
    13    10     7    1
    14     7     1    1
    15     1     2   ar
    16     2     3   ar
    17     3     4   ar
    18     4     5   ar
    19     5    23    1
    20    23    24    1
    21    24    25    1
    22    25    26   ar
    23    26    27   ar
    24    27    31    1
    25    31    32   ar
    26    32    33   ar
    27    33    34   ar
    28    34    35   ar
    29    35    36    1
    30    35    37   ar
    31    27    28   ar
    32    28    29   ar
    33    29    30    1
    34     5     6   ar
    35    16    17   ar
    36    17    18   ar
    37    18    13   ar
    38     6     1   ar
    39    29    25   ar
    40    37    31   ar
@<TRIPOS>MOLECULE
*****
 37 40 0 0 0
SMALL
GASTEIGER

@<TRIPOS>ATOM
      1 C         140.5413  142.6432  158.8941 C.ar    1  UNL1        0.0008
      2 C         141.5406  143.4938  158.1678 C.ar    1  UNL1       -0.0024
      3 C         141.7395  144.9254  158.5691 C.ar    1  UNL1        0.0028
      4 C         140.9391  145.5063  159.6969 C.ar    1  UNL1        0.0369
      5 C         139.9397  144.6556  160.4233 C.ar    1  UNL1        0.1389
      6 C         139.7408  143.2240  160.0220 C.ar    1  UNL1        0.0343
      7 C         140.3424  141.2116  158.4928 C.3     1  UNL1        0.1239
      8 C         139.4122  139.2421  159.9091 C.2     1  UNL1        0.4100
      9 O         138.0490  139.4656  159.3245 O.2     1  UNL1       -0.2258
     10 N         140.5589  140.1152  159.4932 N.am    1  UNL1       -0.2363
     11 O         139.6287  138.1457  160.9095 O.3     1  UNL1       -0.4101
     12 C         138.3302  139.0642  166.6948 C.3     1  UNL1        0.0310
     13 C         138.6548  138.8346  165.2485 C.ar    1  UNL1       -0.0217
     14 C         138.1501  139.7878  164.2061 C.ar    1  UNL1       -0.0011
     15 C         138.4747  139.5582  162.7598 C.ar    1  UNL1        0.0373
     16 C         139.3041  138.3753  162.3558 C.ar    1  UNL1        0.1500
     17 C         139.8088  137.4221  163.3983 C.ar    1  UNL1        0.0373
     18 C         139.4841  137.6518  164.8447 C.ar    1  UNL1       -0.0011
     19 C         141.9221  139.8917  160.0778 C.3     1  UNL1        0.1388
     20 C         142.9223  139.0463  159.3466 C.2     1  UNL1        0.0706
     21 O         144.1605  139.6730  158.7771 O.co2   1  UNL1       -0.5474
     22 O         142.6845  137.5741  159.1848 O.co2   1  UNL1       -0.5474
     23 O         139.1393  145.2365  161.5511 O.3     1  UNL1       -0.4689
     24 C         139.7866  145.4813  162.8819 C.3     1  UNL1        0.2537
     25 C         140.0218  144.3374  163.8233 C.ar    1  UNL1        0.1359
     26 N         140.9510  143.1826  163.5929 N.ar    1  UNL1       -0.2093
     27 C         140.8725  142.2790  164.7876 C.ar    1  UNL1        0.2291
     28 O         139.8948  142.8753  165.7564 O.2     1  UNL1       -0.4391
     29 C         139.3690  144.1475  165.1604 C.ar    1  UNL1        0.1421
     30 C         138.3666  145.0681  165.7909 C.3     1  UNL1        0.0740
     31 C         141.6374  141.0031  164.9797 C.ar    1  UNL1        0.0544
     32 C         141.7523  140.3961  166.3465 C.ar    1  UNL1        0.0047
     33 C         142.5172  139.1201  166.5388 C.ar    1  UNL1        0.0010
     34 C         143.1672  138.4512  165.3640 C.ar    1  UNL1        0.0114
     35 C         143.0524  139.0582  163.9971 C.ar    1  UNL1        0.0578
     36 CL        143.7024  138.3893  162.8224 Cl      1  UNL1       -0.0822
     37 C         142.2874  140.3342  163.8050 C.ar    1  UNL1        0.0160
@<TRIPOS>UNITY_ATOM_ATTR
21 1
charge -1
@<TRIPOS>BOND
     1    12    13    1
     2    13    14   ar
     3    14    15   ar
     4    15    16   ar
     5    16    11    1
     6    11     8    1
     7     8     9    2
     8     8    10   am
     9    10    19    1
    10    19    20    1
    11    20    21   ar
    12    20    22   ar
    13    10     7    1
    14     7     1    1
    15     1     2   ar
    16     2     3   ar
    17     3     4   ar
    18     4     5   ar
    19     5    23    1
    20    23    24    1
    21    24    25    1
    22    25    26   ar
    23    26    27   ar
    24    27    31    1
    25    31    32   ar
    26    32    33   ar
    27    33    34   ar
    28    34    35   ar
    29    35    36    1
    30    35    37   ar
    31    27    28   ar
    32    28    29   ar
    33    29    30    1
    34     5     6   ar
    35    16    17   ar
    36    17    18   ar
    37    18    13   ar
    38     6     1   ar
    39    29    25   ar
    40    37    31   ar
@<TRIPOS>MOLECULE
*****
 37 40 0 0 0
SMALL
GASTEIGER

@<TRIPOS>ATOM
      1 C         141.3036  144.4256  161.7085 C.ar    1  UNL1        0.0008
      2 C         141.1021  145.4897  162.7463 C.ar    1  UNL1       -0.0024
      3 C         142.1704  145.7556  163.7650 C.ar    1  UNL1        0.0028
      4 C         143.4403  144.9575  163.7460 C.ar    1  UNL1        0.0369
      5 C         143.6418  143.8933  162.7082 C.ar    1  UNL1        0.1389
      6 C         142.5735  143.6274  161.6894 C.ar    1  UNL1        0.0343
      7 C         140.2353  144.1596  160.6897 C.3     1  UNL1        0.1239
      8 C         138.2168  142.8825  161.7120 C.2     1  UNL1        0.4100
      9 O         137.8737  144.0864  162.5385 O.2     1  UNL1       -0.2258
     10 N         139.3976  142.9192  160.7876 N.am    1  UNL1       -0.2363
     11 O         137.3792  141.6421  161.8099 O.3     1  UNL1       -0.4101
     12 C         139.0348  137.1857  165.4704 C.3     1  UNL1        0.0310
     13 C         138.6209  138.2998  164.5553 C.ar    1  UNL1       -0.0217
     14 C         138.2769  139.6460  165.1204 C.ar    1  UNL1       -0.0011
     15 C         137.8630  140.7601  164.2054 C.ar    1  UNL1        0.0373
     16 C         137.7931  140.5280  162.7250 C.ar    1  UNL1        0.1500
     17 C         138.1371  139.1818  162.1599 C.ar    1  UNL1        0.0373
     18 C         138.5510  138.0677  163.0750 C.ar    1  UNL1       -0.0011
     19 C         139.7408  141.7153  159.9611 C.3     1  UNL1        0.1388
     20 C         139.2005  141.5832  158.5681 C.2     1  UNL1        0.0706
     21 O         137.9981  142.3774  158.1515 O.co2   1  UNL1       -0.5474
     22 O         139.8625  140.6568  157.5916 O.co2   1  UNL1       -0.5474
     23 O         144.9117  143.0952  162.6892 O.3     1  UNL1       -0.4689
     24 C         144.9795  141.7767  163.4012 C.3     1  UNL1        0.2537
     25 C         143.7918  141.2769  164.1689 C.ar    1  UNL1        0.1359
     26 N         143.3447  141.7623  165.5160 N.ar    1  UNL1       -0.2093
     27 C         142.1192  140.9893  165.9041 C.ar    1  UNL1        0.2291
     28 O         141.8087  140.0262  164.7968 O.2     1  UNL1       -0.4391
     29 C         142.8425  140.2039  163.7244 C.ar    1  UNL1        0.1421
     30 C         142.9142  139.4424  162.4341 C.3     1  UNL1        0.0740
     31 C         141.3408  141.1511  167.1759 C.ar    1  UNL1        0.0544
     32 C         140.6282  139.9744  167.7740 C.ar    1  UNL1        0.0047
     33 C         139.8498  140.1361  169.0459 C.ar    1  UNL1        0.0010
     34 C         139.7839  141.4746  169.7199 C.ar    1  UNL1        0.0114
     35 C         140.4965  142.6513  169.1218 C.ar    1  UNL1        0.0578
     36 CL        140.4306  143.9897  169.7958 Cl      1  UNL1       -0.0822
     37 C         141.2749  142.4895  167.8499 C.ar    1  UNL1        0.0160
@<TRIPOS>UNITY_ATOM_ATTR
21 1
charge -1
@<TRIPOS>BOND
     1    12    13    1
     2    13    14   ar
     3    14    15   ar
     4    15    16   ar
     5    16    11    1
     6    11     8    1
     7     8     9    2
     8     8    10   am
     9    10    19    1
    10    19    20    1
    11    20    21   ar
    12    20    22   ar
    13    10     7    1
    14     7     1    1
    15     1     2   ar
    16     2     3   ar
    17     3     4   ar
    18     4     5   ar
    19     5    23    1
    20    23    24    1
    21    24    25    1
    22    25    26   ar
    23    26    27   ar
    24    27    31    1
    25    31    32   ar
    26    32    33   ar
    27    33    34   ar
    28    34    35   ar
    29    35    36    1
    30    35    37   ar
    31    27    28   ar
    32    28    29   ar
    33    29    30    1
    34     5     6   ar
    35    16    17   ar
    36    17    18   ar
    37    18    13   ar
    38     6     1   ar
    39    29    25   ar
    40    37    31   ar
@<TRIPOS>MOLECULE
*****
 37 40 0 0 0
SMALL
GASTEIGER

@<TRIPOS>ATOM
      1 C         139.5549  144.7527  162.6940 C.ar    1  UNL1        0.0008
      2 C         139.3865  145.1783  164.1225 C.ar    1  UNL1       -0.0024
      3 C         138.4189  144.4549  165.0115 C.ar    1  UNL1        0.0028
      4 C         137.6197  143.3059  164.4722 C.ar    1  UNL1        0.0369
      5 C         137.7880  142.8803  163.0437 C.ar    1  UNL1        0.1389
      6 C         138.7556  143.6037  162.1546 C.ar    1  UNL1        0.0343
      7 C         140.5225  145.4761  161.8050 C.3     1  UNL1        0.1239
      8 C         142.8820  144.4096  162.0181 C.2     1  UNL1        0.4100
      9 O         142.9384  144.8223  163.4591 O.2     1  UNL1       -0.2258
     10 N         141.6740  144.7365  161.1911 N.am    1  UNL1       -0.2363
     11 O         144.0335  143.6699  161.4042 O.3     1  UNL1       -0.4101
     12 C         144.0196  137.6714  161.2755 C.3     1  UNL1        0.0310
     13 C         144.0231  139.1710  161.3076 C.ar    1  UNL1       -0.0217
     14 C         143.8302  139.9489  160.0397 C.ar    1  UNL1       -0.0011
     15 C         143.8336  141.4485  160.0719 C.ar    1  UNL1        0.0373
     16 C         144.0300  142.1703  161.3721 C.ar    1  UNL1        0.1500
     17 C         144.2229  141.3925  162.6400 C.ar    1  UNL1        0.0373
     18 C         144.2195  139.8928  162.6078 C.ar    1  UNL1       -0.0011
     19 C         141.6176  144.3237  159.7501 C.3     1  UNL1        0.1388
     20 C         141.3710  145.3506  158.6849 C.2     1  UNL1        0.0706
     21 O         142.5112  146.1658  158.1506 O.co2   1  UNL1       -0.5474
     22 O         139.9841  145.5622  158.1539 O.co2   1  UNL1       -0.5474
     23 O         136.9887  141.7313  162.5043 O.3     1  UNL1       -0.4689
     24 C         137.5752  140.3507  162.4904 C.3     1  UNL1        0.2537
     25 C         138.7837  140.0409  163.3230 C.ar    1  UNL1        0.1359
     26 N         138.8791  140.1553  164.8157 N.ar    1  UNL1       -0.2093
     27 C         140.2635  139.7473  165.2244 C.ar    1  UNL1        0.2291
     28 O         141.0238  139.3806  163.9844 O.2     1  UNL1       -0.4391
     29 C         140.1092  139.5621  162.8092 C.ar    1  UNL1        0.1421
     30 C         140.4588  139.3091  161.3727 C.3     1  UNL1        0.0740
     31 C         140.7943  139.7121  166.6268 C.ar    1  UNL1        0.0544
     32 C         142.2254  139.3393  166.8779 C.ar    1  UNL1        0.0047
     33 C         142.7564  139.3041  168.2803 C.ar    1  UNL1        0.0010
     34 C         141.8561  139.6417  169.4317 C.ar    1  UNL1        0.0114
     35 C         140.4251  140.0145  169.1806 C.ar    1  UNL1        0.0578
     36 CL        139.5249  140.3521  170.3320 Cl      1  UNL1       -0.0822
     37 C         139.8941  140.0497  167.7782 C.ar    1  UNL1        0.0160
@<TRIPOS>UNITY_ATOM_ATTR
21 1
charge -1
@<TRIPOS>BOND
     1    12    13    1
     2    13    14   ar
     3    14    15   ar
     4    15    16   ar
     5    16    11    1
     6    11     8    1
     7     8     9    2
     8     8    10   am
     9    10    19    1
    10    19    20    1
    11    20    21   ar
    12    20    22   ar
    13    10     7    1
    14     7     1    1
    15     1     2   ar
    16     2     3   ar
    17     3     4   ar
    18     4     5   ar
    19     5    23    1
    20    23    24    1
    21    24    25    1
    22    25    26   ar
    23    26    27   ar
    24    27    31    1
    25    31    32   ar
    26    32    33   ar
    27    33    34   ar
    28    34    35   ar
    29    35    36    1
    30    35    37   ar
    31    27    28   ar
    32    28    29   ar
    33    29    30    1
    34     5     6   ar
    35    16    17   ar
    36    17    18   ar
    37    18    13   ar
    38     6     1   ar
    39    29    25   ar
    40    37    31   ar
@<TRIPOS>MOLECULE
*****
 37 40 0 0 0
SMALL
GASTEIGER

@<TRIPOS>ATOM
      1 C         142.5711  140.3003  160.0760 C.ar    1  UNL1        0.0008
      2 C         142.4928  138.8552  160.4702 C.ar    1  UNL1       -0.0024
      3 C         143.4148  138.3138  161.5223 C.ar    1  UNL1        0.0028
      4 C         144.4151  139.2174  162.1801 C.ar    1  UNL1        0.0369
      5 C         144.4935  140.6626  161.7858 C.ar    1  UNL1        0.1389
      6 C         143.5715  141.2041  160.7338 C.ar    1  UNL1        0.0343
      7 C         141.6491  140.8418  159.0240 C.3     1  UNL1        0.1239
      8 C         139.4467  141.4669  160.2522 C.2     1  UNL1        0.4100
      9 O         139.3237  140.0570  160.7493 O.2     1  UNL1       -0.2258
     10 N         140.6094  141.8593  159.3895 N.am    1  UNL1       -0.2363
     11 O         138.4069  142.4844  160.6177 O.3     1  UNL1       -0.4101
     12 C         138.5034  145.0586  166.0365 C.3     1  UNL1        0.0310
     13 C         138.4792  144.4151  164.6818 C.ar    1  UNL1       -0.0217
     14 C         137.7426  143.1244  164.4776 C.ar    1  UNL1       -0.0011
     15 C         137.7185  142.4809  163.1230 C.ar    1  UNL1        0.0373
     16 C         138.4310  143.1279  161.9724 C.ar    1  UNL1        0.1500
     17 C         139.1677  144.4185  162.1766 C.ar    1  UNL1        0.0373
     18 C         139.1917  145.0621  163.5314 C.ar    1  UNL1       -0.0011
     19 C         140.7323  143.2691  158.8924 C.3     1  UNL1        0.1388
     20 C         141.9457  144.0819  159.2343 C.2     1  UNL1        0.0706
     21 O         142.8477  144.5785  158.1434 O.co2   1  UNL1       -0.5474
     22 O         142.2574  144.3980  160.6671 O.co2   1  UNL1       -0.5474
     23 O         145.4938  141.5663  162.4436 O.3     1  UNL1       -0.4689
     24 C         145.2518  142.0644  163.8376 C.3     1  UNL1        0.2537
     25 C         143.8523  142.1530  164.3700 C.ar    1  UNL1        0.1359
     26 N         143.0400  141.0127  164.9088 N.ar    1  UNL1       -0.2093
     27 C         141.7050  141.5523  165.3289 C.ar    1  UNL1        0.2291
     28 O         141.6921  143.0261  165.0499 O.2     1  UNL1       -0.4391
     29 C         143.0192  143.3973  164.4573 C.ar    1  UNL1        0.1421
     30 C         143.4394  144.7716  164.0274 C.3     1  UNL1        0.0740
     31 C         140.5804  140.7577  165.9236 C.ar    1  UNL1        0.0544
     32 C         139.7303  139.8880  165.0456 C.ar    1  UNL1        0.0047
     33 C         138.6056  139.0934  165.6403 C.ar    1  UNL1        0.0010
     34 C         138.3311  139.1685  167.1131 C.ar    1  UNL1        0.0114
     35 C         139.1812  140.0382  167.9911 C.ar    1  UNL1        0.0578
     36 CL        138.9067  140.1132  169.4639 Cl      1  UNL1       -0.0822
     37 C         140.3059  140.8328  167.3964 C.ar    1  UNL1        0.0160
@<TRIPOS>UNITY_ATOM_ATTR
21 1
charge -1
@<TRIPOS>BOND
     1    12    13    1
     2    13    14   ar
     3    14    15   ar
     4    15    16   ar
     5    16    11    1
     6    11     8    1
     7     8     9    2
     8     8    10   am
     9    10    19    1
    10    19    20    1
    11    20    21   ar
    12    20    22   ar
    13    10     7    1
    14     7     1    1
    15     1     2   ar
    16     2     3   ar
    17     3     4   ar
    18     4     5   ar
    19     5    23    1
    20    23    24    1
    21    24    25    1
    22    25    26   ar
    23    26    27   ar
    24    27    31    1
    25    31    32   ar
    26    32    33   ar
    27    33    34   ar
    28    34    35   ar
    29    35    36    1
    30    35    37   ar
    31    27    28   ar
    32    28    29   ar
    33    29    30    1
    34     5     6   ar
    35    16    17   ar
    36    17    18   ar
    37    18    13   ar
    38     6     1   ar
    39    29    25   ar
    40    37    31   ar
@<TRIPOS>MOLECULE
*****
 37 40 0 0 0
SMALL
GASTEIGER

@<TRIPOS>ATOM
      1 C         140.5853  141.9473  159.1706 C.ar    1  UNL1        0.0008
      2 C         141.8930  142.4350  158.6210 C.ar    1  UNL1       -0.0024
      3 C         142.3728  143.8190  158.9438 C.ar    1  UNL1        0.0028
      4 C         141.5450  144.7154  159.8162 C.ar    1  UNL1        0.0369
      5 C         140.2373  144.2277  160.3659 C.ar    1  UNL1        0.1389
      6 C         139.7574  142.8437  160.0431 C.ar    1  UNL1        0.0343
      7 C         140.1055  140.5633  158.8478 C.3     1  UNL1        0.1239
      8 C         141.5346  138.6746  159.9158 C.2     1  UNL1        0.4100
      9 O         142.6558  138.9882  158.9699 O.2     1  UNL1       -0.2258
     10 N         140.2594  139.4622  159.8548 N.am    1  UNL1       -0.2363
     11 O         141.6886  137.5736  160.9227 O.3     1  UNL1       -0.4101
     12 C         142.7875  138.8971  166.6708 C.3     1  UNL1        0.0310
     13 C         142.5128  138.5663  165.2338 C.ar    1  UNL1       -0.0217
     14 C         143.3722  139.1504  164.1521 C.ar    1  UNL1       -0.0011
     15 C         143.0975  138.8196  162.7151 C.ar    1  UNL1        0.0373
     16 C         141.9633  137.9045  162.3597 C.ar    1  UNL1        0.1500
     17 C         141.1039  137.3203  163.4414 C.ar    1  UNL1        0.0373
     18 C         141.3786  137.6512  164.8785 C.ar    1  UNL1       -0.0011
     19 C         139.1383  139.1487  160.8006 C.3     1  UNL1        0.1388
     20 C         138.9432  139.9795  162.0342 C.2     1  UNL1        0.0706
     21 O         140.1007  140.7292  162.6244 O.co2   1  UNL1       -0.5474
     22 O         137.5906  140.0608  162.6775 O.co2   1  UNL1       -0.5474
     23 O         139.4095  145.1241  161.2384 O.3     1  UNL1       -0.4689
     24 C         139.9675  145.6331  162.5343 C.3     1  UNL1        0.2537
     25 C         140.4892  144.6678  163.5570 C.ar    1  UNL1        0.1359
     26 N         139.6593  143.7692  164.4253 N.ar    1  UNL1       -0.2093
     27 C         140.5896  142.9775  165.2959 C.ar    1  UNL1        0.2291
     28 O         141.9944  143.3867  164.9656 O.2     1  UNL1       -0.4391
     29 C         141.9323  144.4314  163.8909 C.ar    1  UNL1        0.1421
     30 C         143.1072  145.1190  163.2607 C.3     1  UNL1        0.0740
     31 C         140.1859  141.9560  166.3173 C.ar    1  UNL1        0.0544
     32 C         140.5781  142.1362  167.7539 C.ar    1  UNL1        0.0047
     33 C         140.1745  141.1147  168.7754 C.ar    1  UNL1        0.0010
     34 C         139.3786  139.9128  168.3603 C.ar    1  UNL1        0.0114
     35 C         138.9865  139.7326  166.9238 C.ar    1  UNL1        0.0578
     36 CL        138.1907  138.5307  166.5087 Cl      1  UNL1       -0.0822
     37 C         139.3901  140.7541  165.9022 C.ar    1  UNL1        0.0160
@<TRIPOS>UNITY_ATOM_ATTR
21 1
charge -1
@<TRIPOS>BOND
     1    12    13    1
     2    13    14   ar
     3    14    15   ar
     4    15    16   ar
     5    16    11    1
     6    11     8    1
     7     8     9    2
     8     8    10   am
     9    10    19    1
    10    19    20    1
    11    20    21   ar
    12    20    22   ar
    13    10     7    1
    14     7     1    1
    15     1     2   ar
    16     2     3   ar
    17     3     4   ar
    18     4     5   ar
    19     5    23    1
    20    23    24    1
    21    24    25    1
    22    25    26   ar
    23    26    27   ar
    24    27    31    1
    25    31    32   ar
    26    32    33   ar
    27    33    34   ar
    28    34    35   ar
    29    35    36    1
    30    35    37   ar
    31    27    28   ar
    32    28    29   ar
    33    29    30    1
    34     5     6   ar
    35    16    17   ar
    36    17    18   ar
    37    18    13   ar
    38     6     1   ar
    39    29    25   ar
    40    37    31   ar
