@<TRIPOS>MOLECULE
*****
 42 47 0 0 0
SMALL
GASTEIGER

@<TRIPOS>ATOM
      1 C         140.9471  141.1496  159.4908 C.3     1  UNL1        0.0341
      2 C         141.7973  141.9419  158.5424 C.ar    1  UNL1        0.0137
      3 C         141.5950  143.3803  158.1682 C.ar    1  UNL1        0.0699
      4 C         142.6718  143.7622  157.1963 C.ar    1  UNL1        0.1149
      5 N         143.5397  142.5598  156.9699 N.ar    1  UNL1       -0.2230
      6 N         144.7522  142.3441  156.1136 N.ar    1  UNL1       -0.1422
      7 C         145.4242  141.0033  156.0893 C.ar    1  UNL1        0.2211
      8 N         144.8837  139.8783  156.9213 N.ar    1  UNL1       -0.2060
      9 C         143.6712  140.0940  157.7775 C.ar    1  UNL1        0.1515
     10 C         142.9992  141.4348  157.8018 C.ar    1  UNL1        0.1118
     11 N         140.5070  144.2790  158.6766 N.am    1  UNL1       -0.2487
     12 C         140.7112  145.0646  159.9379 C.2     1  UNL1        0.4055
     13 O         142.0037  144.9515  160.6910 O.2     1  UNL1       -0.2261
     14 H         139.6587  144.3532  158.1824 H       1  UNL1        0.1582
     15 O         139.6232  145.9633  160.4463 O.3     1  UNL1       -0.4329
     16 C         139.4064  146.1175  161.9226 C.3     1  UNL1        0.2282
     17 C         138.9753  144.9390  162.7445 C.3     1  UNL1        0.1284
     18 C         139.5705  144.7140  164.1029 C.3     1  UNL1        0.1616
     19 O         139.1394  143.5356  164.9247 O.3     1  UNL1       -0.3507
     20 C         138.1132  142.5821  164.3882 C.3     1  UNL1        0.1592
     21 C         137.5181  142.8072  163.0298 C.3     1  UNL1        0.1012
     22 N         137.9491  143.9856  162.2080 N.3     1  UNL1       -0.2914
     23 H         137.1103  144.5333  162.0159 H       1  UNL1        0.1235
     24 N         143.1307  138.9690  158.6095 N.pl3   1  UNL1       -0.2967
     25 H         142.6655  138.2166  158.1774 H       1  UNL1        0.1537
     26 C         143.2989  138.9903  160.0999 C.ar    1  UNL1        0.0495
     27 C         142.5772  137.9875  160.9506 C.ar    1  UNL1        0.0162
     28 C         142.7454  138.0088  162.4409 C.ar    1  UNL1        0.0201
     29 C         143.6353  139.0330  163.0807 C.ar    1  UNL1        0.0798
     30 C         144.3569  140.0358  162.2301 C.ar    1  UNL1        0.0394
     31 C         145.1609  140.9197  163.1368 C.ar    1  UNL1        0.1216
     32 N         144.9361  140.4632  164.5479 N.ar    1  UNL1       -0.1674
     33 N         143.9932  139.2972  164.5132 N.ar    1  UNL1       -0.2464
     34 C         144.1888  140.0145  160.7396 C.ar    1  UNL1        0.0177
     35 C         143.4956  138.5299  165.7023 C.3     1  UNL1        0.1538
     36 C         142.3852  139.0868  166.5429 C.ar    1  UNL1        0.0043
     37 C         141.0287  139.3088  165.9422 C.ar    1  UNL1       -0.0022
     38 C         139.9181  139.8656  166.7828 C.ar    1  UNL1        0.0020
     39 C         140.1641  140.2005  168.2241 C.ar    1  UNL1        0.0296
     40 C         141.5205  139.9785  168.8248 C.ar    1  UNL1        0.1399
     41 F         141.7663  140.3134  170.2661 F       1  UNL1       -0.2042
     42 C         142.6310  139.4216  167.9842 C.ar    1  UNL1        0.0273
@<TRIPOS>BOND
     1     1     2    1
     2     2     3   ar
     3     3    11    1
     4    11    12   am
     5    12    13    2
     6    12    15    1
     7    15    16    1
     8    17    16    1
     9    17    18    1
    10    18    19    1
    11    19    20    1
    12    20    21    1
    13    21    22    1
    14     3     4   ar
    15     4     5   ar
    16     5     6   ar
    17     6     7   ar
    18     7     8   ar
    19     8     9   ar
    20     9    24    1
    21    24    26    1
    22    26    27   ar
    23    27    28   ar
    24    28    29   ar
    25    29    30   ar
    26    30    31   ar
    27    31    32   ar
    28    32    33   ar
    29    33    35    1
    30    35    36    1
    31    36    37   ar
    32    37    38   ar
    33    38    39   ar
    34    39    40   ar
    35    40    41    1
    36    40    42   ar
    37    30    34   ar
    38     9    10   ar
    39    10     2   ar
    40    22    17    1
    41    10     5   ar
    42    34    26   ar
    43    33    29   ar
    44    42    36   ar
    45    11    14    1
    46    22    23    1
    47    24    25    1
@<TRIPOS>MOLECULE
*****
 42 47 0 0 0
SMALL
GASTEIGER

@<TRIPOS>ATOM
      1 C         143.2617  142.6365  160.1730 C.3     1  UNL1        0.0341
      2 C         142.8619  142.9355  158.7585 C.ar    1  UNL1        0.0137
      3 C         142.0998  144.1410  158.2938 C.ar    1  UNL1        0.0699
      4 C         141.9209  144.0321  156.8085 C.ar    1  UNL1        0.1149
      5 N         142.5724  142.7592  156.3553 N.ar    1  UNL1       -0.2230
      6 N         142.7112  142.1297  155.0009 N.ar    1  UNL1       -0.1422
      7 C         143.4315  140.8226  154.8517 C.ar    1  UNL1        0.2211
      8 N         144.0131  140.1449  156.0569 N.ar    1  UNL1       -0.2060
      9 C         143.8743  140.7743  157.4113 C.ar    1  UNL1        0.1515
     10 C         143.1539  142.0815  157.5605 C.ar    1  UNL1        0.1118
     11 N         141.6037  145.2592  159.1620 N.am    1  UNL1       -0.2487
     12 C         140.2425  145.1765  159.7865 C.2     1  UNL1        0.4055
     13 O         139.3772  143.9757  159.5429 O.2     1  UNL1       -0.2261
     14 H         142.1716  146.0473  159.3219 H       1  UNL1        0.1582
     15 O         139.7464  146.2947  160.6546 O.3     1  UNL1       -0.4329
     16 C         139.9096  146.2170  162.1438 C.3     1  UNL1        0.2282
     17 C         139.3714  145.0365  162.8966 C.3     1  UNL1        0.1284
     18 C         140.0669  144.5571  164.1362 C.3     1  UNL1        0.1616
     19 O         139.5287  143.3766  164.8891 O.3     1  UNL1       -0.3507
     20 C         138.2951  142.6755  164.4023 C.3     1  UNL1        0.1592
     21 C         137.5997  143.1550  163.1628 C.3     1  UNL1        0.1012
     22 N         138.1379  144.3355  162.4099 N.3     1  UNL1       -0.2914
     23 H         137.3937  145.0326  162.3844 H       1  UNL1        0.1235
     24 N         144.4559  140.0966  158.6165 N.pl3   1  UNL1       -0.2967
     25 H         145.4325  140.0477  158.7303 H       1  UNL1        0.1537
     26 C         143.5494  139.4934  159.6481 C.ar    1  UNL1        0.0495
     27 C         144.0862  139.1396  161.0034 C.ar    1  UNL1        0.0162
     28 C         143.1797  138.5363  162.0351 C.ar    1  UNL1        0.0201
     29 C         141.7364  138.2869  161.7115 C.ar    1  UNL1        0.0798
     30 C         141.1996  138.6406  160.3563 C.ar    1  UNL1        0.0394
     31 C         139.7435  138.2818  160.3263 C.ar    1  UNL1        0.1216
     32 N         139.3804  137.7062  161.6631 N.ar    1  UNL1       -0.1674
     33 N         140.6121  137.7093  162.5192 N.ar    1  UNL1       -0.2464
     34 C         142.1061  139.2439  159.3246 C.ar    1  UNL1        0.0177
     35 C         140.7034  137.2207  163.9345 C.3     1  UNL1        0.1538
     36 C         139.9051  137.8918  165.0125 C.ar    1  UNL1        0.0043
     37 C         138.6396  137.2602  165.5121 C.ar    1  UNL1       -0.0022
     38 C         137.8412  137.9313  166.5902 C.ar    1  UNL1        0.0020
     39 C         138.3084  139.2341  167.1687 C.ar    1  UNL1        0.0296
     40 C         139.5739  139.8656  166.6691 C.ar    1  UNL1        0.1399
     41 F         140.0410  141.1684  167.2476 F       1  UNL1       -0.2042
     42 C         140.3723  139.1946  165.5910 C.ar    1  UNL1        0.0273
@<TRIPOS>BOND
     1     1     2    1
     2     2     3   ar
     3     3    11    1
     4    11    12   am
     5    12    13    2
     6    12    15    1
     7    15    16    1
     8    17    16    1
     9    17    18    1
    10    18    19    1
    11    19    20    1
    12    20    21    1
    13    21    22    1
    14     3     4   ar
    15     4     5   ar
    16     5     6   ar
    17     6     7   ar
    18     7     8   ar
    19     8     9   ar
    20     9    24    1
    21    24    26    1
    22    26    27   ar
    23    27    28   ar
    24    28    29   ar
    25    29    30   ar
    26    30    31   ar
    27    31    32   ar
    28    32    33   ar
    29    33    35    1
    30    35    36    1
    31    36    37   ar
    32    37    38   ar
    33    38    39   ar
    34    39    40   ar
    35    40    41    1
    36    40    42   ar
    37    30    34   ar
    38     9    10   ar
    39    10     2   ar
    40    22    17    1
    41    10     5   ar
    42    34    26   ar
    43    33    29   ar
    44    42    36   ar
    45    11    14    1
    46    22    23    1
    47    24    25    1
@<TRIPOS>MOLECULE
*****
 42 47 0 0 0
SMALL
GASTEIGER

@<TRIPOS>ATOM
      1 C         142.9219  137.4743  160.4544 C.3     1  UNL1        0.0341
      2 C         143.2316  138.7564  159.7400 C.ar    1  UNL1        0.0137
      3 C         143.0304  139.0215  158.2774 C.ar    1  UNL1        0.0699
      4 C         143.4713  140.4274  157.9963 C.ar    1  UNL1        0.1149
      5 N         143.9448  141.0312  159.2852 N.ar    1  UNL1       -0.2230
      6 N         144.4918  142.3880  159.6167 N.ar    1  UNL1       -0.1422
      7 C         144.8906  142.7120  161.0259 C.ar    1  UNL1        0.2211
      8 N         144.7424  141.6792  162.1036 N.ar    1  UNL1       -0.2060
      9 C         144.1955  140.3224  161.7721 C.ar    1  UNL1        0.1515
     10 C         143.7967  139.9984  160.3629 C.ar    1  UNL1        0.1118
     11 N         142.4844  138.0511  157.2724 N.am    1  UNL1       -0.2487
     12 C         141.0158  137.7469  157.2446 C.2     1  UNL1        0.4055
     13 O         140.0933  138.4132  158.2219 O.2     1  UNL1       -0.2261
     14 H         143.0899  137.6138  156.6310 H       1  UNL1        0.1582
     15 O         140.4698  136.7765  156.2395 O.3     1  UNL1       -0.4329
     16 C         141.4067  135.9679  155.3919 C.3     1  UNL1        0.2282
     17 C         142.0370  134.7251  155.9470 C.3     1  UNL1        0.1284
     18 C         141.5602  133.3764  155.4955 C.3     1  UNL1        0.1616
     19 O         142.1905  132.1336  156.0506 O.3     1  UNL1       -0.3507
     20 C         143.2976  132.2395  157.0572 C.3     1  UNL1        0.1592
     21 C         143.7744  133.5881  157.5087 C.3     1  UNL1        0.1012
     22 N         143.1441  134.8309  156.9535 N.3     1  UNL1       -0.2914
     23 H         143.8910  135.3689  156.5142 H       1  UNL1        0.1235
     24 N         144.0473  139.2897  162.8498 N.pl3   1  UNL1       -0.2967
     25 H         144.6726  138.5305  162.8933 H       1  UNL1        0.1537
     26 C         142.9465  139.4136  163.8611 C.ar    1  UNL1        0.0495
     27 C         143.2499  139.2621  165.3223 C.ar    1  UNL1        0.0162
     28 C         142.1491  139.3860  166.3336 C.ar    1  UNL1        0.0201
     29 C         140.7449  139.6614  165.8838 C.ar    1  UNL1        0.0798
     30 C         140.4414  139.8129  164.4227 C.ar    1  UNL1        0.0394
     31 C         138.9722  140.0789  164.2795 C.ar    1  UNL1        0.1216
     32 N         138.3676  140.0919  165.6521 N.ar    1  UNL1       -0.1674
     33 N         139.4631  139.8338  166.6437 N.ar    1  UNL1       -0.2464
     34 C         141.5423  139.6889  163.4113 C.ar    1  UNL1        0.0177
     35 C         139.3047  139.7610  168.1336 C.3     1  UNL1        0.1538
     36 C         140.2207  140.5466  169.0244 C.ar    1  UNL1        0.0043
     37 C         141.2228  139.8350  169.8844 C.ar    1  UNL1       -0.0022
     38 C         142.1389  140.6206  170.7753 C.ar    1  UNL1        0.0020
     39 C         142.0529  142.1179  170.8061 C.ar    1  UNL1        0.0296
     40 C         141.0509  142.8294  169.9461 C.ar    1  UNL1        0.1399
     41 F         140.9649  144.3266  169.9770 F       1  UNL1       -0.2042
     42 C         140.1348  142.0438  169.0553 C.ar    1  UNL1        0.0273
@<TRIPOS>BOND
     1     1     2    1
     2     2     3   ar
     3     3    11    1
     4    11    12   am
     5    12    13    2
     6    12    15    1
     7    15    16    1
     8    17    16    1
     9    17    18    1
    10    18    19    1
    11    19    20    1
    12    20    21    1
    13    21    22    1
    14     3     4   ar
    15     4     5   ar
    16     5     6   ar
    17     6     7   ar
    18     7     8   ar
    19     8     9   ar
    20     9    24    1
    21    24    26    1
    22    26    27   ar
    23    27    28   ar
    24    28    29   ar
    25    29    30   ar
    26    30    31   ar
    27    31    32   ar
    28    32    33   ar
    29    33    35    1
    30    35    36    1
    31    36    37   ar
    32    37    38   ar
    33    38    39   ar
    34    39    40   ar
    35    40    41    1
    36    40    42   ar
    37    30    34   ar
    38     9    10   ar
    39    10     2   ar
    40    22    17    1
    41    10     5   ar
    42    34    26   ar
    43    33    29   ar
    44    42    36   ar
    45    11    14    1
    46    22    23    1
    47    24    25    1
@<TRIPOS>MOLECULE
*****
 42 47 0 0 0
SMALL
GASTEIGER

@<TRIPOS>ATOM
      1 C         140.5729  141.3009  159.2017 C.3     1  UNL1        0.0341
      2 C         141.6458  142.0593  158.4779 C.ar    1  UNL1        0.0137
      3 C         141.6751  143.5411  158.2469 C.ar    1  UNL1        0.0699
      4 C         142.9251  143.8666  157.4843 C.ar    1  UNL1        0.1149
      5 N         143.6683  142.5860  157.2440 N.ar    1  UNL1       -0.2230
      6 N         144.9628  142.2927  156.5454 N.ar    1  UNL1       -0.1422
      7 C         145.4666  140.8824  156.4608 C.ar    1  UNL1        0.2211
      8 N         144.6759  139.7654  157.0749 N.ar    1  UNL1       -0.2060
      9 C         143.3814  140.0587  157.7736 C.ar    1  UNL1        0.1515
     10 C         142.8776  141.4690  157.8581 C.ar    1  UNL1        0.1118
     11 N         140.6368  144.5247  158.6991 N.am    1  UNL1       -0.2487
     12 C         140.7421  145.1559  160.0557 C.2     1  UNL1        0.4055
     13 O         141.8857  144.8035  160.9603 O.2     1  UNL1       -0.2261
     14 H         139.8863  144.7560  158.1055 H       1  UNL1        0.1582
     15 O         139.7038  146.1395  160.5079 O.3     1  UNL1       -0.4329
     16 C         139.3846  146.2753  161.9673 C.3     1  UNL1        0.2282
     17 C         139.0305  145.0611  162.7738 C.3     1  UNL1        0.1284
     18 C         139.8354  144.7071  163.9891 C.3     1  UNL1        0.1616
     19 O         139.4813  143.4929  164.7955 O.3     1  UNL1       -0.3507
     20 C         138.3224  142.6327  164.3867 C.3     1  UNL1        0.1592
     21 C         137.5176  142.9868  163.1714 C.3     1  UNL1        0.1012
     22 N         137.8717  144.2010  162.3650 N.3     1  UNL1       -0.2914
     23 H         137.0470  144.8013  162.3591 H       1  UNL1        0.1235
     24 N         142.5907  138.9417  158.3877 N.pl3   1  UNL1       -0.2967
     25 H         142.0771  138.3286  157.8136 H       1  UNL1        0.1537
     26 C         142.5825  138.7588  159.8764 C.ar    1  UNL1        0.0495
     27 C         143.7739  139.1711  160.6893 C.ar    1  UNL1        0.0162
     28 C         143.7657  138.9882  162.1780 C.ar    1  UNL1        0.0201
     29 C         142.5662  138.3930  162.8540 C.ar    1  UNL1        0.0798
     30 C         141.3749  137.9807  162.0412 C.ar    1  UNL1        0.0394
     31 C         140.3436  137.4260  162.9786 C.ar    1  UNL1        0.1216
     32 N         140.8976  137.4955  164.3708 N.ar    1  UNL1       -0.1674
     33 N         142.2713  138.0931  164.2938 N.ar    1  UNL1       -0.2464
     34 C         141.3830  138.1636  160.5524 C.ar    1  UNL1        0.0177
     35 C         143.1889  138.3465  165.4531 C.3     1  UNL1        0.1538
     36 C         143.1015  139.6383  166.2103 C.ar    1  UNL1        0.0043
     37 C         142.7758  139.6288  167.6746 C.ar    1  UNL1       -0.0022
     38 C         142.6884  140.9206  168.4319 C.ar    1  UNL1        0.0020
     39 C         142.9266  142.2220  167.7250 C.ar    1  UNL1        0.0296
     40 C         143.2522  142.2315  166.2608 C.ar    1  UNL1        0.1399
     41 F         143.4904  143.5329  165.5540 F       1  UNL1       -0.2042
     42 C         143.3397  140.9397  165.5035 C.ar    1  UNL1        0.0273
@<TRIPOS>BOND
     1     1     2    1
     2     2     3   ar
     3     3    11    1
     4    11    12   am
     5    12    13    2
     6    12    15    1
     7    15    16    1
     8    17    16    1
     9    17    18    1
    10    18    19    1
    11    19    20    1
    12    20    21    1
    13    21    22    1
    14     3     4   ar
    15     4     5   ar
    16     5     6   ar
    17     6     7   ar
    18     7     8   ar
    19     8     9   ar
    20     9    24    1
    21    24    26    1
    22    26    27   ar
    23    27    28   ar
    24    28    29   ar
    25    29    30   ar
    26    30    31   ar
    27    31    32   ar
    28    32    33   ar
    29    33    35    1
    30    35    36    1
    31    36    37   ar
    32    37    38   ar
    33    38    39   ar
    34    39    40   ar
    35    40    41    1
    36    40    42   ar
    37    30    34   ar
    38     9    10   ar
    39    10     2   ar
    40    22    17    1
    41    10     5   ar
    42    34    26   ar
    43    33    29   ar
    44    42    36   ar
    45    11    14    1
    46    22    23    1
    47    24    25    1
@<TRIPOS>MOLECULE
*****
 42 47 0 0 0
SMALL
GASTEIGER

@<TRIPOS>ATOM
      1 C         143.4059  141.8665  161.0161 C.3     1  UNL1        0.0341
      2 C         142.5918  141.4774  159.8178 C.ar    1  UNL1        0.0137
      3 C         141.6517  142.3699  159.0630 C.ar    1  UNL1        0.0699
      4 C         141.0538  141.5716  157.9427 C.ar    1  UNL1        0.1149
      5 N         141.6244  140.1857  158.0050 N.ar    1  UNL1       -0.2230
      6 N         141.4011  138.9693  157.1563 N.ar    1  UNL1       -0.1422
      7 C         142.1285  137.6947  157.4664 C.ar    1  UNL1        0.2211
      8 N         143.0790  137.6365  158.6253 N.ar    1  UNL1       -0.2060
      9 C         143.3022  138.8529  159.4741 C.ar    1  UNL1        0.1515
     10 C         142.5749  140.1275  159.1639 C.ar    1  UNL1        0.1118
     11 N         141.3607  143.8082  159.3740 N.am    1  UNL1       -0.2487
     12 C         140.0041  144.2078  159.8738 C.2     1  UNL1        0.4055
     13 O         138.9384  143.1691  160.0627 O.2     1  UNL1       -0.2261
     14 H         142.0601  144.4899  159.2501 H       1  UNL1        0.1582
     15 O         139.7130  145.6460  160.1848 O.3     1  UNL1       -0.4329
     16 C         139.9099  146.1669  161.5777 C.3     1  UNL1        0.2282
     17 C         140.7866  145.4218  162.5401 C.3     1  UNL1        0.1284
     18 C         140.1884  144.7789  163.7562 C.3     1  UNL1        0.1616
     19 O         141.0652  144.0338  164.7186 O.3     1  UNL1       -0.3507
     20 C         142.5401  143.9317  164.4648 C.3     1  UNL1        0.1592
     21 C         143.1382  144.5746  163.2488 C.3     1  UNL1        0.1012
     22 N         142.2614  145.3197  162.2864 N.3     1  UNL1       -0.2914
     23 H         142.3735  144.8704  161.3775 H       1  UNL1        0.1235
     24 N         144.2528  138.7947  160.6330 N.pl3   1  UNL1       -0.2967
     25 H         145.2195  138.7004  160.4724 H       1  UNL1        0.1537
     26 C         143.7304  138.8801  162.0365 C.ar    1  UNL1        0.0495
     27 C         144.6192  139.3754  163.1387 C.ar    1  UNL1        0.0162
     28 C         144.0969  139.4608  164.5422 C.ar    1  UNL1        0.0201
     29 C         142.6858  139.0511  164.8435 C.ar    1  UNL1        0.0798
     30 C         141.7970  138.5558  163.7414 C.ar    1  UNL1        0.0394
     31 C         140.4607  138.2247  164.3368 C.ar    1  UNL1        0.1216
     32 N         140.5236  138.5153  165.8071 N.ar    1  UNL1       -0.1674
     33 N         141.8988  139.0260  166.1202 N.ar    1  UNL1       -0.2464
     34 C         142.3193  138.4704  162.3378 C.ar    1  UNL1        0.0177
     35 C         142.3991  139.4392  167.4727 C.3     1  UNL1        0.1538
     36 C         141.6289  140.4381  168.2842 C.ar    1  UNL1        0.0043
     37 C         142.1857  141.8131  168.5065 C.ar    1  UNL1       -0.0022
     38 C         141.4155  142.8122  169.3181 C.ar    1  UNL1        0.0020
     39 C         140.0883  142.4362  169.9074 C.ar    1  UNL1        0.0296
     40 C         139.5315  141.0613  169.6852 C.ar    1  UNL1        0.1399
     41 F         138.2043  140.6854  170.2746 F       1  UNL1       -0.2042
     42 C         140.3017  140.0622  168.8736 C.ar    1  UNL1        0.0273
@<TRIPOS>BOND
     1     1     2    1
     2     2     3   ar
     3     3    11    1
     4    11    12   am
     5    12    13    2
     6    12    15    1
     7    15    16    1
     8    17    16    1
     9    17    18    1
    10    18    19    1
    11    19    20    1
    12    20    21    1
    13    21    22    1
    14     3     4   ar
    15     4     5   ar
    16     5     6   ar
    17     6     7   ar
    18     7     8   ar
    19     8     9   ar
    20     9    24    1
    21    24    26    1
    22    26    27   ar
    23    27    28   ar
    24    28    29   ar
    25    29    30   ar
    26    30    31   ar
    27    31    32   ar
    28    32    33   ar
    29    33    35    1
    30    35    36    1
    31    36    37   ar
    32    37    38   ar
    33    38    39   ar
    34    39    40   ar
    35    40    41    1
    36    40    42   ar
    37    30    34   ar
    38     9    10   ar
    39    10     2   ar
    40    22    17    1
    41    10     5   ar
    42    34    26   ar
    43    33    29   ar
    44    42    36   ar
    45    11    14    1
    46    22    23    1
    47    24    25    1
@<TRIPOS>MOLECULE
*****
 42 47 0 0 0
SMALL
GASTEIGER

@<TRIPOS>ATOM
      1 C         141.3681  140.7873  160.1992 C.3     1  UNL1        0.0341
      2 C         140.6798  141.8555  159.4023 C.ar    1  UNL1        0.0137
      3 C         141.1101  143.2882  159.2916 C.ar    1  UNL1        0.0699
      4 C         140.1366  143.9967  158.3970 C.ar    1  UNL1        0.1149
      5 N         139.1046  143.0019  157.9549 N.ar    1  UNL1       -0.2230
      6 N         137.9026  143.1302  157.0669 N.ar    1  UNL1       -0.1422
      7 C         137.0363  141.9350  156.8002 C.ar    1  UNL1        0.2211
      8 N         137.3720  140.6117  157.4215 N.ar    1  UNL1       -0.2060
      9 C         138.5740  140.4835  158.3095 C.ar    1  UNL1        0.1515
     10 C         139.4403  141.6786  158.5763 C.ar    1  UNL1        0.1118
     11 N         142.3043  143.9042  159.9583 N.am    1  UNL1       -0.2487
     12 C         142.3100  144.1116  161.4438 C.2     1  UNL1        0.4055
     13 O         141.1215  143.7030  162.2627 O.2     1  UNL1       -0.2261
     14 H         143.0844  144.1723  159.4208 H       1  UNL1        0.1582
     15 O         143.5042  144.7276  162.1105 O.3     1  UNL1       -0.4329
     16 C         143.9910  144.1893  163.4233 C.3     1  UNL1        0.2282
     17 C         144.0736  142.7076  163.6422 C.3     1  UNL1        0.1284
     18 C         145.3840  141.9968  163.4760 C.3     1  UNL1        0.1616
     19 O         145.4666  140.5152  163.6948 O.3     1  UNL1       -0.3507
     20 C         144.2387  139.7443  164.0798 C.3     1  UNL1        0.1592
     21 C         142.9284  140.4551  164.2460 C.3     1  UNL1        0.1012
     22 N         142.8458  141.9368  164.0272 N.3     1  UNL1       -0.2914
     23 H         142.5031  142.3443  164.8972 H       1  UNL1        0.1235
     24 N         138.9098  139.1601  158.9309 N.pl3   1  UNL1       -0.2967
     25 H         139.1002  138.3819  158.3588 H       1  UNL1        0.1537
     26 C         138.9554  139.0225  160.4238 C.ar    1  UNL1        0.0495
     27 C         138.0015  139.8034  161.2785 C.ar    1  UNL1        0.0162
     28 C         138.0472  139.6658  162.7715 C.ar    1  UNL1        0.0201
     29 C         139.0467  138.7473  163.4098 C.ar    1  UNL1        0.0798
     30 C         140.0005  137.9665  162.5552 C.ar    1  UNL1        0.0394
     31 C         140.8692  137.1453  163.4613 C.ar    1  UNL1        0.1216
     32 N         140.4521  137.4187  164.8760 N.ar    1  UNL1       -0.1674
     33 N         139.3258  138.4088  164.8442 N.ar    1  UNL1       -0.2464
     34 C         139.9549  138.1041  161.0621 C.ar    1  UNL1        0.0177
     35 C         138.6050  138.9630  166.0373 C.3     1  UNL1        0.1538
     36 C         139.2401  140.0430  166.8621 C.ar    1  UNL1        0.0043
     37 C         139.8278  141.2501  166.1930 C.ar    1  UNL1       -0.0022
     38 C         140.4629  142.3301  167.0178 C.ar    1  UNL1        0.0020
     39 C         140.5103  142.2030  168.5117 C.ar    1  UNL1        0.0296
     40 C         139.9227  140.9959  169.1807 C.ar    1  UNL1        0.1399
     41 F         139.9702  140.8689  170.6745 F       1  UNL1       -0.2042
     42 C         139.2876  139.9159  168.3559 C.ar    1  UNL1        0.0273
@<TRIPOS>BOND
     1     1     2    1
     2     2     3   ar
     3     3    11    1
     4    11    12   am
     5    12    13    2
     6    12    15    1
     7    15    16    1
     8    17    16    1
     9    17    18    1
    10    18    19    1
    11    19    20    1
    12    20    21    1
    13    21    22    1
    14     3     4   ar
    15     4     5   ar
    16     5     6   ar
    17     6     7   ar
    18     7     8   ar
    19     8     9   ar
    20     9    24    1
    21    24    26    1
    22    26    27   ar
    23    27    28   ar
    24    28    29   ar
    25    29    30   ar
    26    30    31   ar
    27    31    32   ar
    28    32    33   ar
    29    33    35    1
    30    35    36    1
    31    36    37   ar
    32    37    38   ar
    33    38    39   ar
    34    39    40   ar
    35    40    41    1
    36    40    42   ar
    37    30    34   ar
    38     9    10   ar
    39    10     2   ar
    40    22    17    1
    41    10     5   ar
    42    34    26   ar
    43    33    29   ar
    44    42    36   ar
    45    11    14    1
    46    22    23    1
    47    24    25    1
@<TRIPOS>MOLECULE
*****
 42 47 0 0 0
SMALL
GASTEIGER

@<TRIPOS>ATOM
      1 C         142.6201  141.4591  159.2330 C.3     1  UNL1        0.0341
      2 C         141.5220  141.1452  158.2605 C.ar    1  UNL1        0.0137
      3 C         140.4938  142.1106  157.7500 C.ar    1  UNL1        0.0699
      4 C         139.5957  141.3728  156.8018 C.ar    1  UNL1        0.1149
      5 N         140.0689  139.9514  156.7263 N.ar    1  UNL1       -0.2230
      6 N         139.5696  138.7670  155.9530 N.ar    1  UNL1       -0.1422
      7 C         140.2608  137.4420  156.0814 C.ar    1  UNL1        0.2211
      8 N         141.4513  137.3013  156.9830 N.ar    1  UNL1       -0.2060
      9 C         141.9507  138.4857  157.7562 C.ar    1  UNL1        0.1515
     10 C         141.2595  139.8107  157.6278 C.ar    1  UNL1        0.1118
     11 N         140.3830  143.5594  158.1223 N.am    1  UNL1       -0.2487
     12 C         139.7964  143.9509  159.4462 C.2     1  UNL1        0.4055
     13 O         139.3206  142.8934  160.3978 O.2     1  UNL1       -0.2261
     14 H         140.6953  144.2534  157.4978 H       1  UNL1        0.1582
     15 O         139.6857  145.3997  159.8185 O.3     1  UNL1       -0.4329
     16 C         140.2017  145.8749  161.1444 C.3     1  UNL1        0.2282
     17 C         139.7425  145.2120  162.4092 C.3     1  UNL1        0.1284
     18 C         140.7242  144.9316  163.5082 C.3     1  UNL1        0.1616
     19 O         140.2650  144.2687  164.7730 O.3     1  UNL1       -0.3507
     20 C         138.8240  143.8863  164.9388 C.3     1  UNL1        0.1592
     21 C         137.8424  144.1667  163.8399 C.3     1  UNL1        0.1012
     22 N         138.3016  144.8296  162.5751 N.3     1  UNL1       -0.2914
     23 H         137.7565  145.6861  162.4768 H       1  UNL1        0.1235
     24 N         143.1412  138.3450  158.6578 N.pl3   1  UNL1       -0.2967
     25 H         144.0464  138.2956  158.2738 H       1  UNL1        0.1537
     26 C         142.9526  138.2796  160.1444 C.ar    1  UNL1        0.0495
     27 C         144.1021  138.5798  161.0602 C.ar    1  UNL1        0.0162
     28 C         143.9135  138.5144  162.5468 C.ar    1  UNL1        0.0201
     29 C         142.5755  138.1487  163.1177 C.ar    1  UNL1        0.0798
     30 C         141.4260  137.8485  162.2020 C.ar    1  UNL1        0.0394
     31 C         140.2326  137.5190  163.0488 C.ar    1  UNL1        0.1216
     32 N         140.6444  137.6156  164.4879 N.ar    1  UNL1       -0.1674
     33 N         142.0924  138.0048  164.5305 N.ar    1  UNL1       -0.2464
     34 C         141.6146  137.9139  160.7153 C.ar    1  UNL1        0.0177
     35 C         142.9133  138.2134  165.7686 C.3     1  UNL1        0.1538
     36 C         142.9188  139.5505  166.4482 C.ar    1  UNL1        0.0043
     37 C         142.6811  139.6414  167.9266 C.ar    1  UNL1       -0.0022
     38 C         142.6866  140.9785  168.6063 C.ar    1  UNL1        0.0020
     39 C         142.9296  142.2248  167.8077 C.ar    1  UNL1        0.0296
     40 C         143.1672  142.1339  166.3295 C.ar    1  UNL1        0.1399
     41 F         143.4102  143.3803  165.5309 F       1  UNL1       -0.2042
     42 C         143.1618  140.7968  165.6497 C.ar    1  UNL1        0.0273
@<TRIPOS>BOND
     1     1     2    1
     2     2     3   ar
     3     3    11    1
     4    11    12   am
     5    12    13    2
     6    12    15    1
     7    15    16    1
     8    17    16    1
     9    17    18    1
    10    18    19    1
    11    19    20    1
    12    20    21    1
    13    21    22    1
    14     3     4   ar
    15     4     5   ar
    16     5     6   ar
    17     6     7   ar
    18     7     8   ar
    19     8     9   ar
    20     9    24    1
    21    24    26    1
    22    26    27   ar
    23    27    28   ar
    24    28    29   ar
    25    29    30   ar
    26    30    31   ar
    27    31    32   ar
    28    32    33   ar
    29    33    35    1
    30    35    36    1
    31    36    37   ar
    32    37    38   ar
    33    38    39   ar
    34    39    40   ar
    35    40    41    1
    36    40    42   ar
    37    30    34   ar
    38     9    10   ar
    39    10     2   ar
    40    22    17    1
    41    10     5   ar
    42    34    26   ar
    43    33    29   ar
    44    42    36   ar
    45    11    14    1
    46    22    23    1
    47    24    25    1
@<TRIPOS>MOLECULE
*****
 42 47 0 0 0
SMALL
GASTEIGER

@<TRIPOS>ATOM
      1 C         143.0949  142.1717  163.1564 C.3     1  UNL1        0.0341
      2 C         142.9573  141.5628  161.7925 C.ar    1  UNL1        0.0137
      3 C         142.5459  142.2832  160.5428 C.ar    1  UNL1        0.0699
      4 C         142.5413  141.2922  159.4168 C.ar    1  UNL1        0.1149
      5 N         142.9499  139.9594  159.9706 N.ar    1  UNL1       -0.2230
      6 N         143.1210  138.6151  159.3275 N.ar    1  UNL1       -0.1422
      7 C         143.5493  137.4380  160.1528 C.ar    1  UNL1        0.2211
      8 N         143.8064  137.6053  161.6211 N.ar    1  UNL1       -0.2060
      9 C         143.6352  138.9496  162.2642 C.ar    1  UNL1        0.1515
     10 C         143.2070  140.1266  161.4389 C.ar    1  UNL1        0.1118
     11 N         142.1998  143.7389  160.4375 N.am    1  UNL1       -0.2487
     12 C         140.7693  144.1599  160.2754 C.2     1  UNL1        0.4055
     13 O         139.6848  143.1252  160.2185 O.2     1  UNL1       -0.2261
     14 H         142.9116  144.4180  160.4749 H       1  UNL1        0.1582
     15 O         140.4232  145.6157  160.1702 O.3     1  UNL1       -0.4329
     16 C         139.7026  146.2985  161.2948 C.3     1  UNL1        0.2282
     17 C         139.2184  145.5008  162.4692 C.3     1  UNL1        0.1284
     18 C         140.0574  145.4065  163.7090 C.3     1  UNL1        0.1616
     19 O         139.5731  144.6088  164.8834 O.3     1  UNL1       -0.3507
     20 C         138.2499  143.9054  164.8179 C.3     1  UNL1        0.1592
     21 C         137.4109  143.9997  163.5781 C.3     1  UNL1        0.1012
     22 N         137.8952  144.7974  162.4037 N.3     1  UNL1       -0.2914
     23 H         137.1904  145.5121  162.2225 H       1  UNL1        0.1235
     24 N         143.8923  139.1169  163.7325 N.pl3   1  UNL1       -0.2967
     25 H         144.8167  139.1572  164.0689 H       1  UNL1        0.1537
     26 C         142.7411  139.2226  164.6882 C.ar    1  UNL1        0.0495
     27 C         142.9575  139.7787  166.0645 C.ar    1  UNL1        0.0162
     28 C         141.8063  139.8844  167.0202 C.ar    1  UNL1        0.0201
     29 C         140.4386  139.4341  166.5997 C.ar    1  UNL1        0.0798
     30 C         140.2222  138.8780  165.2236 C.ar    1  UNL1        0.0394
     31 C         138.7723  138.5169  165.0922 C.ar    1  UNL1        0.1216
     32 N         138.0926  138.8499  166.3872 N.ar    1  UNL1       -0.1674
     33 N         139.1224  139.4167  167.3189 N.ar    1  UNL1       -0.2464
     34 C         141.3735  138.7722  164.2677 C.ar    1  UNL1        0.0177
     35 C         138.8788  139.8841  168.7234 C.3     1  UNL1        0.1538
     36 C         139.9374  140.6596  169.4498 C.ar    1  UNL1        0.0043
     37 C         140.9743  139.9375  170.2583 C.ar    1  UNL1       -0.0022
     38 C         142.0330  140.7130  170.9848 C.ar    1  UNL1        0.0020
     39 C         142.0548  142.2107  170.9029 C.ar    1  UNL1        0.0296
     40 C         141.0179  142.9327  170.0945 C.ar    1  UNL1        0.1399
     41 F         141.0397  144.4303  170.0126 F       1  UNL1       -0.2042
     42 C         139.9592  142.1572  169.3680 C.ar    1  UNL1        0.0273
@<TRIPOS>BOND
     1     1     2    1
     2     2     3   ar
     3     3    11    1
     4    11    12   am
     5    12    13    2
     6    12    15    1
     7    15    16    1
     8    17    16    1
     9    17    18    1
    10    18    19    1
    11    19    20    1
    12    20    21    1
    13    21    22    1
    14     3     4   ar
    15     4     5   ar
    16     5     6   ar
    17     6     7   ar
    18     7     8   ar
    19     8     9   ar
    20     9    24    1
    21    24    26    1
    22    26    27   ar
    23    27    28   ar
    24    28    29   ar
    25    29    30   ar
    26    30    31   ar
    27    31    32   ar
    28    32    33   ar
    29    33    35    1
    30    35    36    1
    31    36    37   ar
    32    37    38   ar
    33    38    39   ar
    34    39    40   ar
    35    40    41    1
    36    40    42   ar
    37    30    34   ar
    38     9    10   ar
    39    10     2   ar
    40    22    17    1
    41    10     5   ar
    42    34    26   ar
    43    33    29   ar
    44    42    36   ar
    45    11    14    1
    46    22    23    1
    47    24    25    1
@<TRIPOS>MOLECULE
*****
 42 47 0 0 0
SMALL
GASTEIGER

@<TRIPOS>ATOM
      1 C         137.7971  140.6073  160.3520 C.3     1  UNL1        0.0341
      2 C         138.5100  141.5819  159.4620 C.ar    1  UNL1        0.0137
      3 C         138.6912  141.4518  157.9786 C.ar    1  UNL1        0.0699
      4 C         139.4600  142.6471  157.4990 C.ar    1  UNL1        0.1149
      5 N         139.7541  143.5159  158.6859 N.ar    1  UNL1       -0.2230
      6 N         140.4806  144.8215  158.8187 N.ar    1  UNL1       -0.1422
      7 C         140.6200  145.4686  160.1647 C.ar    1  UNL1        0.2211
      8 N         140.0329  144.8103  161.3779 N.ar    1  UNL1       -0.2060
      9 C         139.3063  143.5047  161.2451 C.ar    1  UNL1        0.1515
     10 C         139.1670  142.8576  159.8991 C.ar    1  UNL1        0.1118
     11 N         138.1912  140.3244  157.1249 N.am    1  UNL1       -0.2487
     12 C         137.0968  140.5666  156.1282 C.2     1  UNL1        0.4055
     13 O         136.5022  141.9364  155.9852 O.2     1  UNL1       -0.2261
     14 H         138.5814  139.4254  157.2187 H       1  UNL1        0.1582
     15 O         136.5968  139.4392  155.2744 O.3     1  UNL1       -0.4329
     16 C         135.2061  139.4825  154.7139 C.3     1  UNL1        0.2282
     17 C         134.0278  139.5744  155.6375 C.3     1  UNL1        0.1284
     18 C         133.1462  140.7878  155.6101 C.3     1  UNL1        0.1616
     19 O         131.9679  140.8797  156.5338 O.3     1  UNL1       -0.3507
     20 C         131.6711  139.7582  157.4847 C.3     1  UNL1        0.1592
     21 C         132.5526  138.5449  157.5120 C.3     1  UNL1        0.1012
     22 N         133.7310  138.4530  156.5884 N.3     1  UNL1       -0.2914
     23 H         133.5970  137.6149  156.0227 H       1  UNL1        0.1235
     24 N         138.7192  142.8464  162.4583 N.pl3   1  UNL1       -0.2967
     25 H         137.7427  142.8216  162.5809 H       1  UNL1        0.1537
     26 C         139.6199  142.2257  163.4847 C.ar    1  UNL1        0.0495
     27 C         139.5231  142.6477  164.9209 C.ar    1  UNL1        0.0162
     28 C         140.4238  142.0271  165.9472 C.ar    1  UNL1        0.0201
     29 C         141.4212  140.9844  165.5375 C.ar    1  UNL1        0.0798
     30 C         141.5180  140.5623  164.1014 C.ar    1  UNL1        0.0394
     31 C         142.5901  139.5186  163.9962 C.ar    1  UNL1        0.1216
     32 N         143.1560  139.2955  165.3673 N.ar    1  UNL1       -0.1674
     33 N         142.4336  140.2014  166.3199 N.ar    1  UNL1       -0.2464
     34 C         140.6173  141.1830  163.0749 C.ar    1  UNL1        0.0177
     35 C         142.6802  140.3061  167.7959 C.3     1  UNL1        0.1538
     36 C         141.7110  141.0484  168.6674 C.ar    1  UNL1        0.0043
     37 C         142.0411  142.4304  169.1482 C.ar    1  UNL1       -0.0022
     38 C         141.0720  143.1728  170.0197 C.ar    1  UNL1        0.0020
     39 C         139.7726  142.5332  170.4104 C.ar    1  UNL1        0.0296
     40 C         139.4425  141.1512  169.9296 C.ar    1  UNL1        0.1399
     41 F         138.1432  140.5117  170.3204 F       1  UNL1       -0.2042
     42 C         140.4117  140.4088  169.0581 C.ar    1  UNL1        0.0273
@<TRIPOS>BOND
     1     1     2    1
     2     2     3   ar
     3     3    11    1
     4    11    12   am
     5    12    13    2
     6    12    15    1
     7    15    16    1
     8    17    16    1
     9    17    18    1
    10    18    19    1
    11    19    20    1
    12    20    21    1
    13    21    22    1
    14     3     4   ar
    15     4     5   ar
    16     5     6   ar
    17     6     7   ar
    18     7     8   ar
    19     8     9   ar
    20     9    24    1
    21    24    26    1
    22    26    27   ar
    23    27    28   ar
    24    28    29   ar
    25    29    30   ar
    26    30    31   ar
    27    31    32   ar
    28    32    33   ar
    29    33    35    1
    30    35    36    1
    31    36    37   ar
    32    37    38   ar
    33    38    39   ar
    34    39    40   ar
    35    40    41    1
    36    40    42   ar
    37    30    34   ar
    38     9    10   ar
    39    10     2   ar
    40    22    17    1
    41    10     5   ar
    42    34    26   ar
    43    33    29   ar
    44    42    36   ar
    45    11    14    1
    46    22    23    1
    47    24    25    1
