@<TRIPOS>MOLECULE
*****
 45 48 0 0 0
SMALL
GASTEIGER

@<TRIPOS>ATOM
      1 C         142.1119  141.2826  163.0543 C.3     1  UNL1        0.0779
      2 C         142.3891  141.5716  164.4999 C.ar    1  UNL1        0.0373
      3 C         141.5777  140.8999  165.5679 C.ar    1  UNL1        0.0023
      4 C         141.8548  141.1889  167.0135 C.ar    1  UNL1        0.0181
      5 C         141.0435  140.5172  168.0815 C.ar    1  UNL1        0.0082
      6 C         141.3207  140.8062  169.5271 C.ar    1  UNL1        0.0347
      7 BR        140.5094  140.1346  170.5951 Br      1  UNL1       -0.0490
      8 C         142.4091  141.7668  169.9046 C.ar    1  UNL1        0.0082
      9 C         143.2204  142.4384  168.8366 C.ar    1  UNL1        0.0197
     10 C         142.9433  142.1495  167.3911 C.ar    1  UNL1        0.0844
     11 N         143.7546  142.8211  166.3230 N.ar    1  UNL1       -0.2119
     12 C         143.4775  142.5322  164.8774 C.ar    1  UNL1        0.2211
     13 O         144.2888  143.2038  163.8094 O.3     1  UNL1       -0.4563
     14 C         143.7920  144.6174  163.7404 C.3     1  UNL1        0.2542
     15 C         141.2696  142.2269  162.2487 C.ar    1  UNL1       -0.0064
     16 C         141.6833  142.5989  160.8557 C.ar    1  UNL1        0.0540
     17 C         140.8410  143.5432  160.0502 C.ar    1  UNL1        0.2272
     18 N         139.5851  144.1155  160.6377 N.ar    1  UNL1       -0.1767
     19 C         139.1714  143.7435  162.0307 C.ar    1  UNL1        0.2272
     20 C         140.0138  142.7991  162.8362 C.ar    1  UNL1        0.0540
     21 O         141.2547  143.9152  158.6572 O.3     1  UNL1       -0.4561
     22 C         142.7101  144.0247  158.3110 C.3     1  UNL1        0.2542
     23 O         137.9155  144.3157  162.6182 O.3     1  UNL1       -0.4561
     24 C         137.6980  144.2808  164.1019 C.3     1  UNL1        0.2542
     25 C         142.6770  140.0493  162.4142 C.3     1  UNL1        0.1161
     26 O         144.0377  140.6805  162.3993 O.3     1  UNL1       -0.3820
     27 H         144.6755  140.0647  162.0059 H       1  UNL1        0.2107
     28 C         139.0887  138.8448  161.2215 C.ar    1  UNL1        0.2271
     29 C         140.4493  139.4760  161.2066 C.ar    1  UNL1        0.0559
     30 C         141.3164  139.4181  162.4291 C.ar    1  UNL1        0.0117
     31 C         140.8228  138.7289  163.6666 C.ar    1  UNL1        0.0559
     32 C         139.4622  138.0977  163.6815 C.ar    1  UNL1        0.2270
     33 N         138.5951  138.1556  162.4589 N.ar    1  UNL1       -0.1767
     34 O         138.2216  138.9028  159.9988 O.3     1  UNL1       -0.4602
     35 C         138.5163  140.8779  158.3369 C.3     1  UNL1        0.0512
     36 C         137.7681  140.2284  159.4631 C.3     1  UNL1        0.2072
     37 O         138.9686  137.4085  164.9191 O.3     1  UNL1       -0.4640
     38 C         138.1835  138.1750  165.9419 C.3     1  UNL1        0.1678
     39 C         137.4147  137.4420  167.0009 C.3     1  UNL1        0.0473
     40 C         138.1672  139.6745  165.9055 C.3     1  UNL1        0.0473
     41 C         143.2422  138.8160  161.7742 C.3     1  UNL1        0.0491
     42 C         144.1555  138.9367  160.5904 C.3     1  UNL1        0.0750
     43 N         143.5817  139.0645  159.2104 N.3     1  UNL1       -0.2702
     44 C         143.8949  140.2716  158.3768 C.3     1  UNL1        0.0897
     45 C         142.6947  137.9853  158.6640 C.3     1  UNL1        0.0897
@<TRIPOS>BOND
     1    35    36    1
     2    36    34    1
     3    34    28    1
     4    28    29   ar
     5    29    30   ar
     6    30    25    1
     7    25    26    1
     8    25    41    1
     9    41    42    1
    10    42    43    1
    11    43    44    1
    12    43    45    1
    13    25     1    1
    14     1    15    1
    15    15    16   ar
    16    16    17   ar
    17    17    21    1
    18    21    22    1
    19    17    18   ar
    20    18    19   ar
    21    19    23    1
    22    23    24    1
    23    19    20   ar
    24     1     2    1
    25     2     3   ar
    26     3     4   ar
    27     4     5   ar
    28     5     6   ar
    29     6     7    1
    30     6     8   ar
    31     8     9   ar
    32     9    10   ar
    33    10    11   ar
    34    11    12   ar
    35    12    13    1
    36    13    14    1
    37    30    31   ar
    38    31    32   ar
    39    32    37    1
    40    37    38    1
    41    38    39    1
    42    38    40    1
    43    32    33   ar
    44    33    28   ar
    45    20    15   ar
    46    12     2   ar
    47    10     4   ar
    48    26    27    1
@<TRIPOS>MOLECULE
*****
 45 48 0 0 0
SMALL
GASTEIGER

@<TRIPOS>ATOM
      1 C         142.0855  141.1908  162.9587 C.3     1  UNL1        0.0779
      2 C         142.4032  141.4998  164.3917 C.ar    1  UNL1        0.0373
      3 C         141.6100  140.8578  165.4911 C.ar    1  UNL1        0.0023
      4 C         141.9277  141.1668  166.9241 C.ar    1  UNL1        0.0181
      5 C         141.1345  140.5248  168.0235 C.ar    1  UNL1        0.0082
      6 C         141.4523  140.8338  169.4565 C.ar    1  UNL1        0.0347
      7 BR        140.6591  140.1918  170.5559 Br      1  UNL1       -0.0490
      8 C         142.5632  141.7849  169.7902 C.ar    1  UNL1        0.0082
      9 C         143.3564  142.4269  168.6908 C.ar    1  UNL1        0.0197
     10 C         143.0387  142.1179  167.2578 C.ar    1  UNL1        0.0844
     11 N         143.8319  142.7600  166.1584 N.ar    1  UNL1       -0.2119
     12 C         143.5141  142.4509  164.7254 C.ar    1  UNL1        0.2211
     13 O         144.3073  143.0930  163.6260 O.3     1  UNL1       -0.4563
     14 C         143.8192  144.5085  163.5364 C.3     1  UNL1        0.2542
     15 C         141.2728  142.1546  162.1460 C.ar    1  UNL1       -0.0064
     16 C         140.0581  142.8011  162.7431 C.ar    1  UNL1        0.0540
     17 C         139.2454  143.7649  161.9304 C.ar    1  UNL1        0.2272
     18 N         139.6473  144.0822  160.5205 N.ar    1  UNL1       -0.1767
     19 C         140.8620  143.4357  159.9233 C.ar    1  UNL1        0.2272
     20 C         141.6747  142.4718  160.7361 C.ar    1  UNL1        0.0540
     21 O         138.0307  144.4114  162.5276 O.3     1  UNL1       -0.4561
     22 C         137.6969  144.1893  163.9730 C.3     1  UNL1        0.2542
     23 O         141.2639  143.7529  158.5135 O.3     1  UNL1       -0.4561
     24 C         142.6947  144.0712  158.1951 C.3     1  UNL1        0.2542
     25 C         142.5805  139.9179  162.3384 C.3     1  UNL1        0.1161
     26 O         143.9658  140.4893  162.2713 O.3     1  UNL1       -0.3820
     27 H         144.5662  139.8365  161.8786 H       1  UNL1        0.2107
     28 C         138.8935  138.8893  161.2907 C.ar    1  UNL1        0.2271
     29 C         140.2787  139.4607  161.2236 C.ar    1  UNL1        0.0559
     30 C         141.1952  139.3465  162.4055 C.ar    1  UNL1        0.0117
     31 C         140.7265  138.6608  163.6545 C.ar    1  UNL1        0.0559
     32 C         139.3412  138.0894  163.7216 C.ar    1  UNL1        0.2270
     33 N         138.4247  138.2036  162.5397 N.ar    1  UNL1       -0.1767
     34 O         137.9769  139.0036  160.1088 O.3     1  UNL1       -0.4602
     35 C         138.8453  140.1636  157.9523 C.3     1  UNL1        0.0512
     36 C         138.0455  140.2103  159.2204 C.3     1  UNL1        0.2072
     37 O         138.8725  137.4037  164.9707 O.3     1  UNL1       -0.4640
     38 C         138.1217  138.1768  166.0141 C.3     1  UNL1        0.1678
     39 C         137.3566  137.4503  167.0802 C.3     1  UNL1        0.0473
     40 C         138.1362  139.6767  165.9913 C.3     1  UNL1        0.0473
     41 C         143.0755  138.6450  161.7181 C.3     1  UNL1        0.0491
     42 C         144.0288  138.6958  160.5610 C.3     1  UNL1        0.0750
     43 N         143.5570  139.1781  159.2213 N.3     1  UNL1       -0.2702
     44 C         144.0472  140.4885  158.6807 C.3     1  UNL1        0.0897
     45 C         142.5950  138.3498  158.4221 C.3     1  UNL1        0.0897
@<TRIPOS>BOND
     1    35    36    1
     2    36    34    1
     3    34    28    1
     4    28    29   ar
     5    29    30   ar
     6    30    25    1
     7    25    26    1
     8    25    41    1
     9    41    42    1
    10    42    43    1
    11    43    44    1
    12    43    45    1
    13    25     1    1
    14     1    15    1
    15    15    16   ar
    16    16    17   ar
    17    17    21    1
    18    21    22    1
    19    17    18   ar
    20    18    19   ar
    21    19    23    1
    22    23    24    1
    23    19    20   ar
    24     1     2    1
    25     2     3   ar
    26     3     4   ar
    27     4     5   ar
    28     5     6   ar
    29     6     7    1
    30     6     8   ar
    31     8     9   ar
    32     9    10   ar
    33    10    11   ar
    34    11    12   ar
    35    12    13    1
    36    13    14    1
    37    30    31   ar
    38    31    32   ar
    39    32    37    1
    40    37    38    1
    41    38    39    1
    42    38    40    1
    43    32    33   ar
    44    33    28   ar
    45    20    15   ar
    46    12     2   ar
    47    10     4   ar
    48    26    27    1
@<TRIPOS>MOLECULE
*****
 45 48 0 0 0
SMALL
GASTEIGER

@<TRIPOS>ATOM
      1 C         142.1666  141.5956  162.8132 C.3     1  UNL1        0.0779
      2 C         142.4657  141.7832  164.2711 C.ar    1  UNL1        0.0373
      3 C         141.6599  141.0502  165.3024 C.ar    1  UNL1        0.0023
      4 C         141.9589  141.2378  166.7602 C.ar    1  UNL1        0.0181
      5 C         141.1531  140.5048  167.7915 C.ar    1  UNL1        0.0082
      6 C         141.4522  140.6924  169.2494 C.ar    1  UNL1        0.0347
      7 BR        140.6464  139.9594  170.2806 Br      1  UNL1       -0.0490
      8 C         142.5570  141.6129  169.6760 C.ar    1  UNL1        0.0082
      9 C         143.3628  142.3458  168.6448 C.ar    1  UNL1        0.0197
     10 C         143.0638  142.1583  167.1869 C.ar    1  UNL1        0.0844
     11 N         143.8695  142.8913  166.1557 N.ar    1  UNL1       -0.2119
     12 C         143.5705  142.7037  164.6977 C.ar    1  UNL1        0.2211
     13 O         144.3763  143.4367  163.6665 O.3     1  UNL1       -0.4563
     14 C         143.8597  144.8449  163.6625 C.3     1  UNL1        0.2542
     15 C         141.4501  142.6701  162.0503 C.ar    1  UNL1       -0.0064
     16 C         142.0660  143.2474  160.8104 C.ar    1  UNL1        0.0540
     17 C         141.3494  144.3219  160.0475 C.ar    1  UNL1        0.2272
     18 N         140.0169  144.8190  160.5244 N.ar    1  UNL1       -0.1767
     19 C         139.4010  144.2416  161.7643 C.ar    1  UNL1        0.2272
     20 C         140.1177  143.1671  162.5273 C.ar    1  UNL1        0.0540
     21 O         141.9653  144.8993  158.8076 O.3     1  UNL1       -0.4561
     22 C         142.7855  144.0287  157.9023 C.3     1  UNL1        0.2542
     23 O         138.0686  144.7387  162.2413 O.3     1  UNL1       -0.4561
     24 C         137.4728  144.1923  163.5048 C.3     1  UNL1        0.2542
     25 C         142.5841  140.3336  162.1183 C.3     1  UNL1        0.1161
     26 O         144.0150  140.7814  162.1647 O.3     1  UNL1       -0.3820
     27 H         144.5779  140.1084  161.7510 H       1  UNL1        0.2107
     28 C         139.0723  138.8758  163.2549 C.ar    1  UNL1        0.2271
     29 C         140.5031  139.3236  163.3012 C.ar    1  UNL1        0.0559
     30 C         141.1533  139.8858  162.0719 C.ar    1  UNL1        0.0117
     31 C         140.3726  140.0001  160.7963 C.ar    1  UNL1        0.0559
     32 C         138.9417  139.5523  160.7499 C.ar    1  UNL1        0.2270
     33 N         138.2916  138.9901  161.9792 N.ar    1  UNL1       -0.1767
     34 O         138.4221  138.3136  164.4843 O.3     1  UNL1       -0.4602
     35 C         137.7472  138.5650  166.9805 C.3     1  UNL1        0.0512
     36 C         138.2772  139.1639  165.7115 C.3     1  UNL1        0.2072
     37 O         138.1610  139.6667  159.4741 O.3     1  UNL1       -0.4640
     38 C         138.5700  140.6645  158.4315 C.3     1  UNL1        0.1678
     39 C         139.2278  140.2000  157.1660 C.3     1  UNL1        0.0473
     40 C         138.3211  142.1269  158.6544 C.3     1  UNL1        0.0473
     41 C         143.0016  139.0715  161.4234 C.3     1  UNL1        0.0491
     42 C         144.0292  139.1211  160.3317 C.3     1  UNL1        0.0750
     43 N         143.6006  139.3051  158.9061 N.3     1  UNL1       -0.2702
     44 C         142.7145  138.2869  158.2520 C.3     1  UNL1        0.0897
     45 C         144.0581  140.5074  158.1346 C.3     1  UNL1        0.0897
@<TRIPOS>BOND
     1    35    36    1
     2    36    34    1
     3    34    28    1
     4    28    29   ar
     5    29    30   ar
     6    30    25    1
     7    25    26    1
     8    25    41    1
     9    41    42    1
    10    42    43    1
    11    43    44    1
    12    43    45    1
    13    25     1    1
    14     1    15    1
    15    15    16   ar
    16    16    17   ar
    17    17    21    1
    18    21    22    1
    19    17    18   ar
    20    18    19   ar
    21    19    23    1
    22    23    24    1
    23    19    20   ar
    24     1     2    1
    25     2     3   ar
    26     3     4   ar
    27     4     5   ar
    28     5     6   ar
    29     6     7    1
    30     6     8   ar
    31     8     9   ar
    32     9    10   ar
    33    10    11   ar
    34    11    12   ar
    35    12    13    1
    36    13    14    1
    37    30    31   ar
    38    31    32   ar
    39    32    37    1
    40    37    38    1
    41    38    39    1
    42    38    40    1
    43    32    33   ar
    44    33    28   ar
    45    20    15   ar
    46    12     2   ar
    47    10     4   ar
    48    26    27    1
@<TRIPOS>MOLECULE
*****
 45 48 0 0 0
SMALL
GASTEIGER

@<TRIPOS>ATOM
      1 C         141.3777  142.4153  162.4318 C.3     1  UNL1        0.0779
      2 C         141.8620  142.3521  163.8501 C.ar    1  UNL1        0.0373
      3 C         141.0230  141.6863  164.9001 C.ar    1  UNL1        0.0023
      4 C         141.5072  141.6231  166.3184 C.ar    1  UNL1        0.0181
      5 C         140.6682  140.9572  167.3684 C.ar    1  UNL1        0.0082
      6 C         141.1525  140.8940  168.7867 C.ar    1  UNL1        0.0347
      7 BR        140.3134  140.2282  169.8368 Br      1  UNL1       -0.0490
      8 C         142.4758  141.4967  169.1549 C.ar    1  UNL1        0.0082
      9 C         143.3149  142.1625  168.1049 C.ar    1  UNL1        0.0197
     10 C         142.8306  142.2257  166.6866 C.ar    1  UNL1        0.0844
     11 N         143.6697  142.8916  165.6366 N.ar    1  UNL1       -0.2119
     12 C         143.1853  142.9548  164.2182 C.ar    1  UNL1        0.2211
     13 O         144.0244  143.6206  163.1682 O.3     1  UNL1       -0.4563
     14 C         143.8095  145.0951  163.3409 C.3     1  UNL1        0.2542
     15 C         142.2532  141.9232  161.3177 C.ar    1  UNL1       -0.0064
     16 C         142.8347  140.5417  161.3751 C.ar    1  UNL1        0.0540
     17 C         143.7102  140.0496  160.2610 C.ar    1  UNL1        0.2272
     18 N         144.0042  140.9390  159.0894 N.ar    1  UNL1       -0.1767
     19 C         143.4227  142.3205  159.0319 C.ar    1  UNL1        0.2272
     20 C         142.5472  142.8126  160.1461 C.ar    1  UNL1        0.0540
     21 O         144.2917  138.6681  160.3184 O.3     1  UNL1       -0.4561
     22 C         143.9415  137.7535  161.4546 C.3     1  UNL1        0.2542
     23 O         143.7167  143.2099  157.8604 O.3     1  UNL1       -0.4561
     24 C         142.5989  143.9304  157.1667 C.3     1  UNL1        0.2542
     25 C         140.0178  142.9706  162.1277 C.3     1  UNL1        0.1161
     26 O         140.4711  144.3275  162.5785 O.3     1  UNL1       -0.3820
     27 H         139.7398  144.9586  162.4902 H       1  UNL1        0.2107
     28 C         138.8257  140.0050  159.7752 C.ar    1  UNL1        0.2271
     29 C         139.2790  141.3620  160.2260 C.ar    1  UNL1        0.0559
     30 C         139.5645  141.6137  161.6769 C.ar    1  UNL1        0.0117
     31 C         139.3968  140.5084  162.6769 C.ar    1  UNL1        0.0559
     32 C         138.9435  139.1514  162.2261 C.ar    1  UNL1        0.2270
     33 N         138.6579  138.8998  160.7752 N.ar    1  UNL1       -0.1767
     34 O         138.5401  139.7534  158.3242 O.3     1  UNL1       -0.4602
     35 C         137.8788  140.7410  156.0140 C.3     1  UNL1        0.0512
     36 C         137.8171  140.7866  157.5120 C.3     1  UNL1        0.2072
     37 O         138.7758  138.0461  163.2263 O.3     1  UNL1       -0.4640
     38 C         139.3229  138.2012  164.6143 C.3     1  UNL1        0.1678
     39 C         140.7720  137.9236  164.8846 C.3     1  UNL1        0.0473
     40 C         138.4209  138.6340  165.7320 C.3     1  UNL1        0.0473
     41 C         138.6580  143.5259  161.8236 C.3     1  UNL1        0.0491
     42 C         137.9179  144.3105  162.8661 C.3     1  UNL1        0.0750
     43 N         138.0000  143.9056  164.3081 N.3     1  UNL1       -0.2702
     44 C         138.5424  144.8641  165.3265 C.3     1  UNL1        0.0897
     45 C         137.5396  142.5422  164.7317 C.3     1  UNL1        0.0897
@<TRIPOS>BOND
     1    35    36    1
     2    36    34    1
     3    34    28    1
     4    28    29   ar
     5    29    30   ar
     6    30    25    1
     7    25    26    1
     8    25    41    1
     9    41    42    1
    10    42    43    1
    11    43    44    1
    12    43    45    1
    13    25     1    1
    14     1    15    1
    15    15    16   ar
    16    16    17   ar
    17    17    21    1
    18    21    22    1
    19    17    18   ar
    20    18    19   ar
    21    19    23    1
    22    23    24    1
    23    19    20   ar
    24     1     2    1
    25     2     3   ar
    26     3     4   ar
    27     4     5   ar
    28     5     6   ar
    29     6     7    1
    30     6     8   ar
    31     8     9   ar
    32     9    10   ar
    33    10    11   ar
    34    11    12   ar
    35    12    13    1
    36    13    14    1
    37    30    31   ar
    38    31    32   ar
    39    32    37    1
    40    37    38    1
    41    38    39    1
    42    38    40    1
    43    32    33   ar
    44    33    28   ar
    45    20    15   ar
    46    12     2   ar
    47    10     4   ar
    48    26    27    1
@<TRIPOS>MOLECULE
*****
 45 48 0 0 0
SMALL
GASTEIGER

@<TRIPOS>ATOM
      1 C         140.1828  141.4308  161.7204 C.3     1  UNL1        0.0779
      2 C         139.9483  141.0232  163.1448 C.ar    1  UNL1        0.0373
      3 C         140.9757  141.3339  164.1926 C.ar    1  UNL1        0.0023
      4 C         140.7412  140.9264  165.6170 C.ar    1  UNL1        0.0181
      5 C         141.7686  141.2371  166.6648 C.ar    1  UNL1        0.0082
      6 C         141.5342  140.8295  168.0893 C.ar    1  UNL1        0.0347
      7 BR        142.5615  141.1402  169.1371 Br      1  UNL1       -0.0490
      8 C         140.2723  140.1113  168.4659 C.ar    1  UNL1        0.0082
      9 C         139.2449  139.8005  167.4180 C.ar    1  UNL1        0.0197
     10 C         139.4794  140.2081  165.9937 C.ar    1  UNL1        0.0844
     11 N         138.4520  139.8974  164.9458 N.ar    1  UNL1       -0.2119
     12 C         138.6865  140.3049  163.5214 C.ar    1  UNL1        0.2211
     13 O         137.6591  139.9942  162.4736 O.3     1  UNL1       -0.4563
     14 C         137.8479  138.5474  162.1256 C.3     1  UNL1        0.2542
     15 C         140.4688  140.3892  160.6796 C.ar    1  UNL1       -0.0064
     16 C         139.5827  140.2693  159.4752 C.ar    1  UNL1        0.0540
     17 C         139.8687  139.2277  158.4345 C.ar    1  UNL1        0.2272
     18 N         141.0407  138.3059  158.5981 N.ar    1  UNL1       -0.1767
     19 C         141.9268  138.4258  159.8025 C.ar    1  UNL1        0.2272
     20 C         141.6408  139.4675  160.8433 C.ar    1  UNL1        0.0540
     21 O         138.9827  139.1078  157.2301 O.3     1  UNL1       -0.4561
     22 C         138.6089  140.3327  156.4490 C.3     1  UNL1        0.2542
     23 O         143.0988  137.5041  159.9661 O.3     1  UNL1       -0.4561
     24 C         143.9964  137.6371  161.1605 C.3     1  UNL1        0.2542
     25 C         140.1313  142.8800  161.3368 C.3     1  UNL1        0.1161
     26 O         138.6851  142.9330  161.7314 O.3     1  UNL1       -0.3820
     27 H         138.3420  143.8280  161.5826 H       1  UNL1        0.2107
     28 C         143.4083  142.8295  159.0988 C.ar    1  UNL1        0.2271
     29 C         141.9621  142.8826  159.4934 C.ar    1  UNL1        0.0559
     30 C         141.5775  142.8269  160.9422 C.ar    1  UNL1        0.0117
     31 C         142.6390  142.7182  161.9963 C.ar    1  UNL1        0.0559
     32 C         144.0852  142.6651  161.6017 C.ar    1  UNL1        0.2270
     33 N         144.4698  142.7208  160.1529 N.ar    1  UNL1       -0.1767
     34 O         143.7929  142.8852  157.6500 O.3     1  UNL1       -0.4602
     35 C         143.8397  140.3230  157.2224 C.3     1  UNL1        0.0512
     36 C         144.4151  141.6890  156.9927 C.3     1  UNL1        0.2072
     37 O         145.1468  142.5564  162.6559 O.3     1  UNL1       -0.4640
     38 C         144.7833  142.1193  164.0440 C.3     1  UNL1        0.1678
     39 C         144.5239  143.1433  165.1089 C.3     1  UNL1        0.0473
     40 C         144.6792  140.6582  164.3671 C.3     1  UNL1        0.0473
     41 C         140.0798  144.3292  160.9532 C.3     1  UNL1        0.0491
     42 C         139.7570  145.3675  161.9866 C.3     1  UNL1        0.0750
     43 N         140.2250  145.1893  163.4005 N.3     1  UNL1       -0.2702
     44 C         141.6676  145.4105  163.7466 C.3     1  UNL1        0.0897
     45 C         139.2503  144.7898  164.4684 C.3     1  UNL1        0.0897
@<TRIPOS>BOND
     1    35    36    1
     2    36    34    1
     3    34    28    1
     4    28    29   ar
     5    29    30   ar
     6    30    25    1
     7    25    26    1
     8    25    41    1
     9    41    42    1
    10    42    43    1
    11    43    44    1
    12    43    45    1
    13    25     1    1
    14     1    15    1
    15    15    16   ar
    16    16    17   ar
    17    17    21    1
    18    21    22    1
    19    17    18   ar
    20    18    19   ar
    21    19    23    1
    22    23    24    1
    23    19    20   ar
    24     1     2    1
    25     2     3   ar
    26     3     4   ar
    27     4     5   ar
    28     5     6   ar
    29     6     7    1
    30     6     8   ar
    31     8     9   ar
    32     9    10   ar
    33    10    11   ar
    34    11    12   ar
    35    12    13    1
    36    13    14    1
    37    30    31   ar
    38    31    32   ar
    39    32    37    1
    40    37    38    1
    41    38    39    1
    42    38    40    1
    43    32    33   ar
    44    33    28   ar
    45    20    15   ar
    46    12     2   ar
    47    10     4   ar
    48    26    27    1
@<TRIPOS>MOLECULE
*****
 45 48 0 0 0
SMALL
GASTEIGER

@<TRIPOS>ATOM
      1 C         140.1965  141.4558  161.6792 C.3     1  UNL1        0.0779
      2 C         139.9552  141.0459  163.1019 C.ar    1  UNL1        0.0373
      3 C         140.9876  141.3350  164.1510 C.ar    1  UNL1        0.0023
      4 C         140.7464  140.9252  165.5736 C.ar    1  UNL1        0.0181
      5 C         141.7788  141.2144  166.6227 C.ar    1  UNL1        0.0082
      6 C         141.5375  140.8045  168.0454 C.ar    1  UNL1        0.0347
      7 BR        142.5699  141.0936  169.0945 Br      1  UNL1       -0.0490
      8 C         140.2640  140.1056  168.4189 C.ar    1  UNL1        0.0082
      9 C         139.2316  139.8165  167.3698 C.ar    1  UNL1        0.0197
     10 C         139.4728  140.2263  165.9472 C.ar    1  UNL1        0.0844
     11 N         138.4404  139.9372  164.8981 N.ar    1  UNL1       -0.2119
     12 C         138.6817  140.3470  163.4754 C.ar    1  UNL1        0.2211
     13 O         137.6493  140.0579  162.4263 O.3     1  UNL1       -0.4563
     14 C         137.7934  138.6022  162.0946 C.3     1  UNL1        0.2542
     15 C         140.4743  140.4148  160.6357 C.ar    1  UNL1       -0.0064
     16 C         141.6362  139.4803  160.7992 C.ar    1  UNL1        0.0540
     17 C         141.9140  138.4393  159.7556 C.ar    1  UNL1        0.2272
     18 N         141.0299  138.3327  158.5485 N.ar    1  UNL1       -0.1767
     19 C         139.8680  139.2672  158.3850 C.ar    1  UNL1        0.2272
     20 C         139.5902  140.3083  159.4286 C.ar    1  UNL1        0.0540
     21 O         143.0759  137.5048  159.9191 O.3     1  UNL1       -0.4561
     22 C         143.9809  137.6342  161.1083 C.3     1  UNL1        0.2542
     23 O         138.9839  139.1607  157.1779 O.3     1  UNL1       -0.4561
     24 C         139.4519  138.4047  155.9699 C.3     1  UNL1        0.2542
     25 C         140.1599  142.9066  161.3002 C.3     1  UNL1        0.1161
     26 O         138.7126  142.9717  161.6890 O.3     1  UNL1       -0.3820
     27 H         138.3783  143.8703  161.5417 H       1  UNL1        0.2107
     28 C         143.4453  142.8277  159.0755 C.ar    1  UNL1        0.2271
     29 C         141.9980  142.8928  159.4642 C.ar    1  UNL1        0.0559
     30 C         141.6071  142.8416  160.9115 C.ar    1  UNL1        0.0117
     31 C         142.6636  142.7253  161.9700 C.ar    1  UNL1        0.0559
     32 C         144.1108  142.6603  161.5812 C.ar    1  UNL1        0.2270
     33 N         144.5017  142.7115  160.1340 N.ar    1  UNL1       -0.1767
     34 O         143.8362  142.8790  157.6282 O.3     1  UNL1       -0.4602
     35 C         143.8360  140.3239  157.1573 C.3     1  UNL1        0.0512
     36 C         144.4544  141.6783  156.9753 C.3     1  UNL1        0.2072
     37 O         145.1673  142.5440  162.6398 O.3     1  UNL1       -0.4640
     38 C         144.7942  142.1142  164.0276 C.3     1  UNL1        0.1678
     39 C         144.5344  143.1436  165.0872 C.3     1  UNL1        0.0473
     40 C         144.6810  140.6549  164.3559 C.3     1  UNL1        0.0473
     41 C         140.1233  144.3575  160.9212 C.3     1  UNL1        0.0491
     42 C         139.8135  145.3960  161.9584 C.3     1  UNL1        0.0750
     43 N         140.2554  145.1939  163.3774 N.3     1  UNL1       -0.2702
     44 C         141.6959  145.3858  163.7489 C.3     1  UNL1        0.0897
     45 C         139.2567  144.8000  164.4251 C.3     1  UNL1        0.0897
@<TRIPOS>BOND
     1    35    36    1
     2    36    34    1
     3    34    28    1
     4    28    29   ar
     5    29    30   ar
     6    30    25    1
     7    25    26    1
     8    25    41    1
     9    41    42    1
    10    42    43    1
    11    43    44    1
    12    43    45    1
    13    25     1    1
    14     1    15    1
    15    15    16   ar
    16    16    17   ar
    17    17    21    1
    18    21    22    1
    19    17    18   ar
    20    18    19   ar
    21    19    23    1
    22    23    24    1
    23    19    20   ar
    24     1     2    1
    25     2     3   ar
    26     3     4   ar
    27     4     5   ar
    28     5     6   ar
    29     6     7    1
    30     6     8   ar
    31     8     9   ar
    32     9    10   ar
    33    10    11   ar
    34    11    12   ar
    35    12    13    1
    36    13    14    1
    37    30    31   ar
    38    31    32   ar
    39    32    37    1
    40    37    38    1
    41    38    39    1
    42    38    40    1
    43    32    33   ar
    44    33    28   ar
    45    20    15   ar
    46    12     2   ar
    47    10     4   ar
    48    26    27    1
@<TRIPOS>MOLECULE
*****
 45 48 0 0 0
SMALL
GASTEIGER

@<TRIPOS>ATOM
      1 C         141.4458  142.3801  162.5026 C.3     1  UNL1        0.0779
      2 C         141.8926  142.3379  163.9340 C.ar    1  UNL1        0.0373
      3 C         140.9237  141.9488  165.0109 C.ar    1  UNL1        0.0023
      4 C         141.3705  141.9066  166.4422 C.ar    1  UNL1        0.0181
      5 C         140.4016  141.5175  167.5192 C.ar    1  UNL1        0.0082
      6 C         140.8484  141.4753  168.9505 C.ar    1  UNL1        0.0347
      7 BR        139.8795  141.0862  170.0275 Br      1  UNL1       -0.0490
      8 C         142.2640  141.8222  169.3048 C.ar    1  UNL1        0.0082
      9 C         143.2329  142.2113  168.2279 C.ar    1  UNL1        0.0197
     10 C         142.7862  142.2535  166.7966 C.ar    1  UNL1        0.0844
     11 N         143.7551  142.6426  165.7196 N.ar    1  UNL1       -0.2119
     12 C         143.3083  142.6848  164.2883 C.ar    1  UNL1        0.2211
     13 O         144.2772  143.0739  163.2113 O.3     1  UNL1       -0.4563
     14 C         145.4407  142.1365  163.3437 C.3     1  UNL1        0.2542
     15 C         142.3225  141.8121  161.4262 C.ar    1  UNL1       -0.0064
     16 C         142.7183  142.6617  160.2551 C.ar    1  UNL1        0.0540
     17 C         143.5950  142.0937  159.1787 C.ar    1  UNL1        0.2272
     18 N         144.0760  140.6760  159.2734 N.ar    1  UNL1       -0.1767
     19 C         143.6802  139.8264  160.4445 C.ar    1  UNL1        0.2272
     20 C         142.8035  140.3945  161.5209 C.ar    1  UNL1        0.0540
     21 O         143.9907  142.9433  158.0076 O.3     1  UNL1       -0.4561
     22 C         142.9358  143.5476  157.1288 C.3     1  UNL1        0.2542
     23 O         144.1612  138.4088  160.5392 O.3     1  UNL1       -0.4561
     24 C         143.1836  137.2764  160.4306 C.3     1  UNL1        0.2542
     25 C         140.1223  142.9903  162.1478 C.3     1  UNL1        0.1161
     26 O         140.6331  144.3387  162.5613 O.3     1  UNL1       -0.3820
     27 H         139.9363  145.0014  162.4341 H       1  UNL1        0.2107
     28 C         138.8105  140.0121  159.8764 C.ar    1  UNL1        0.2271
     29 C         139.3214  141.3605  160.2899 C.ar    1  UNL1        0.0559
     30 C         139.6115  141.6419  161.7343 C.ar    1  UNL1        0.0117
     31 C         139.3908  140.5750  162.7653 C.ar    1  UNL1        0.0559
     32 C         138.8800  139.2267  162.3518 C.ar    1  UNL1        0.2270
     33 N         138.5898  138.9452  160.9073 N.ar    1  UNL1       -0.1767
     34 O         138.5204  139.7307  158.4318 O.3     1  UNL1       -0.4602
     35 C         140.9835  139.0297  157.9938 C.3     1  UNL1        0.0512
     36 C         139.5403  139.0287  157.5849 C.3     1  UNL1        0.2072
     37 O         138.6593  138.1598  163.3829 O.3     1  UNL1       -0.4640
     38 C         139.2390  138.3140  164.7577 C.3     1  UNL1        0.1678
     39 C         138.3505  138.6789  165.9098 C.3     1  UNL1        0.0473
     40 C         140.7074  138.1034  164.9804 C.3     1  UNL1        0.0473
     41 C         138.7988  143.6005  161.7930 C.3     1  UNL1        0.0491
     42 C         138.0561  144.4218  162.8050 C.3     1  UNL1        0.0750
     43 N         138.0509  144.0096  164.2473 N.3     1  UNL1       -0.2702
     44 C         137.4521  142.6945  164.6493 C.3     1  UNL1        0.0897
     45 C         138.6445  144.9128  165.2875 C.3     1  UNL1        0.0897
@<TRIPOS>BOND
     1    35    36    1
     2    36    34    1
     3    34    28    1
     4    28    29   ar
     5    29    30   ar
     6    30    25    1
     7    25    26    1
     8    25    41    1
     9    41    42    1
    10    42    43    1
    11    43    44    1
    12    43    45    1
    13    25     1    1
    14     1    15    1
    15    15    16   ar
    16    16    17   ar
    17    17    21    1
    18    21    22    1
    19    17    18   ar
    20    18    19   ar
    21    19    23    1
    22    23    24    1
    23    19    20   ar
    24     1     2    1
    25     2     3   ar
    26     3     4   ar
    27     4     5   ar
    28     5     6   ar
    29     6     7    1
    30     6     8   ar
    31     8     9   ar
    32     9    10   ar
    33    10    11   ar
    34    11    12   ar
    35    12    13    1
    36    13    14    1
    37    30    31   ar
    38    31    32   ar
    39    32    37    1
    40    37    38    1
    41    38    39    1
    42    38    40    1
    43    32    33   ar
    44    33    28   ar
    45    20    15   ar
    46    12     2   ar
    47    10     4   ar
    48    26    27    1
@<TRIPOS>MOLECULE
*****
 45 48 0 0 0
SMALL
GASTEIGER

@<TRIPOS>ATOM
      1 C         140.8136  140.1097  161.8192 C.3     1  UNL1        0.0779
      2 C         140.2028  139.8009  163.1540 C.ar    1  UNL1        0.0373
      3 C         140.5765  140.6160  164.3564 C.ar    1  UNL1        0.0023
      4 C         139.9658  140.3072  165.6912 C.ar    1  UNL1        0.0181
      5 C         140.3395  141.1223  166.8936 C.ar    1  UNL1        0.0082
      6 C         139.7288  140.8134  168.2284 C.ar    1  UNL1        0.0347
      7 BR        140.1025  141.6285  169.4309 Br      1  UNL1       -0.0490
      8 C         138.7443  139.6895  168.3607 C.ar    1  UNL1        0.0082
      9 C         138.3706  138.8744  167.1583 C.ar    1  UNL1        0.0197
     10 C         138.9813  139.1832  165.8235 C.ar    1  UNL1        0.0844
     11 N         138.6075  138.3681  164.6211 N.ar    1  UNL1       -0.2119
     12 C         139.2183  138.6769  163.2863 C.ar    1  UNL1        0.2211
     13 O         138.8446  137.8618  162.0838 O.3     1  UNL1       -0.4563
     14 C         137.5510  138.4327  161.5832 C.3     1  UNL1        0.2542
     15 C         140.3824  141.3303  161.0615 C.ar    1  UNL1       -0.0064
     16 C         140.5902  141.4044  159.5778 C.ar    1  UNL1        0.0540
     17 C         140.1590  142.6250  158.8201 C.ar    1  UNL1        0.2272
     18 N         139.5199  143.7716  159.5461 N.ar    1  UNL1       -0.1767
     19 C         139.3122  143.6976  161.0297 C.ar    1  UNL1        0.2272
     20 C         139.7434  142.4769  161.7875 C.ar    1  UNL1        0.0540
     21 O         140.3668  142.6990  157.3364 O.3     1  UNL1       -0.4561
     22 C         140.0103  143.9508  156.5907 C.3     1  UNL1        0.2542
     23 O         138.6732  144.8441  161.7557 O.3     1  UNL1       -0.4561
     24 C         138.6113  144.8418  163.2544 C.3     1  UNL1        0.2542
     25 C         141.8555  139.1980  161.2422 C.3     1  UNL1        0.1161
     26 O         140.8385  138.6360  160.2936 O.3     1  UNL1       -0.3820
     27 H         141.2546  137.9590  159.7373 H       1  UNL1        0.2107
     28 C         144.4656  139.4563  164.2205 C.ar    1  UNL1        0.2271
     29 C         143.4486  138.8944  163.2720 C.ar    1  UNL1        0.0559
     30 C         142.8726  139.7599  162.1908 C.ar    1  UNL1        0.0117
     31 C         143.3137  141.1874  162.0581 C.ar    1  UNL1        0.0559
     32 C         144.3307  141.7494  163.0067 C.ar    1  UNL1        0.2270
     33 N         144.9067  140.8838  164.0879 N.ar    1  UNL1       -0.1767
     34 O         145.0416  138.5907  165.3018 O.3     1  UNL1       -0.4602
     35 C         143.0365  138.9040  166.9239 C.3     1  UNL1        0.0512
     36 C         144.1554  138.0600  166.3895 C.3     1  UNL1        0.2072
     37 O         144.7718  143.1770  162.8741 O.3     1  UNL1       -0.4640
     38 C         143.7983  144.2894  163.1288 C.3     1  UNL1        0.1678
     39 C         142.7033  144.5684  162.1423 C.3     1  UNL1        0.0473
     40 C         143.9199  145.1229  164.3700 C.3     1  UNL1        0.0473
     41 C         142.8975  138.2862  160.6652 C.3     1  UNL1        0.0491
     42 C         142.7458  137.7636  159.2673 C.3     1  UNL1        0.0750
     43 N         143.1595  138.6111  158.1008 N.3     1  UNL1       -0.2702
     44 C         143.0669  138.0650  156.7068 C.3     1  UNL1        0.0897
     45 C         143.6657  140.0047  158.3283 C.3     1  UNL1        0.0897
@<TRIPOS>BOND
     1    35    36    1
     2    36    34    1
     3    34    28    1
     4    28    29   ar
     5    29    30   ar
     6    30    25    1
     7    25    26    1
     8    25    41    1
     9    41    42    1
    10    42    43    1
    11    43    44    1
    12    43    45    1
    13    25     1    1
    14     1    15    1
    15    15    16   ar
    16    16    17   ar
    17    17    21    1
    18    21    22    1
    19    17    18   ar
    20    18    19   ar
    21    19    23    1
    22    23    24    1
    23    19    20   ar
    24     1     2    1
    25     2     3   ar
    26     3     4   ar
    27     4     5   ar
    28     5     6   ar
    29     6     7    1
    30     6     8   ar
    31     8     9   ar
    32     9    10   ar
    33    10    11   ar
    34    11    12   ar
    35    12    13    1
    36    13    14    1
    37    30    31   ar
    38    31    32   ar
    39    32    37    1
    40    37    38    1
    41    38    39    1
    42    38    40    1
    43    32    33   ar
    44    33    28   ar
    45    20    15   ar
    46    12     2   ar
    47    10     4   ar
    48    26    27    1
@<TRIPOS>MOLECULE
*****
 45 48 0 0 0
SMALL
GASTEIGER

@<TRIPOS>ATOM
      1 C         140.5369  141.6870  158.6128 C.3     1  UNL1        0.0779
      2 C         141.2153  142.4555  159.7079 C.ar    1  UNL1        0.0373
      3 C         141.4603  141.8075  161.0383 C.ar    1  UNL1        0.0023
      4 C         142.1386  142.5759  162.1334 C.ar    1  UNL1        0.0181
      5 C         142.3835  141.9279  163.4638 C.ar    1  UNL1        0.0082
      6 C         143.0619  142.6965  164.5589 C.ar    1  UNL1        0.0347
      7 BR        143.3069  142.0484  165.8893 Br      1  UNL1       -0.0490
      8 C         143.4954  144.1130  164.3235 C.ar    1  UNL1        0.0082
      9 C         143.2504  144.7611  162.9931 C.ar    1  UNL1        0.0197
     10 C         142.5721  143.9926  161.8980 C.ar    1  UNL1        0.0844
     11 N         142.3272  144.6407  160.5676 N.ar    1  UNL1       -0.2119
     12 C         141.6488  143.8721  159.4725 C.ar    1  UNL1        0.2211
     13 O         141.4038  144.5202  158.1421 O.3     1  UNL1       -0.4563
     14 C         140.3688  145.5789  158.3823 C.3     1  UNL1        0.2542
     15 C         141.2486  140.5488  157.9434 C.ar    1  UNL1       -0.0064
     16 C         140.4981  139.2991  157.5897 C.ar    1  UNL1        0.0540
     17 C         141.2098  138.1610  156.9203 C.ar    1  UNL1        0.2272
     18 N         142.6720  138.2725  156.6045 N.ar    1  UNL1       -0.1767
     19 C         143.4224  139.5222  156.9582 C.ar    1  UNL1        0.2272
     20 C         142.7107  140.6603  157.6277 C.ar    1  UNL1        0.0540
     21 O         140.4593  136.9113  156.5666 O.3     1  UNL1       -0.4561
     22 C         139.3003  136.9760  155.6164 C.3     1  UNL1        0.2542
     23 O         144.8845  139.6337  156.6425 O.3     1  UNL1       -0.4561
     24 C         145.5195  140.9849  156.4974 C.3     1  UNL1        0.2542
     25 C         139.1469  142.0566  158.1872 C.3     1  UNL1        0.1161
     26 O         139.6532  142.3774  156.8121 O.3     1  UNL1       -0.3820
     27 H         138.9149  142.6719  156.2562 H       1  UNL1        0.2107
     28 C         137.8466  139.9929  161.3177 C.ar    1  UNL1        0.2271
     29 C         138.3530  140.3137  159.9427 C.ar    1  UNL1        0.0559
     30 C         138.6406  141.7358  159.5622 C.ar    1  UNL1        0.0117
     31 C         138.4219  142.8372  160.5568 C.ar    1  UNL1        0.0559
     32 C         137.9155  142.5164  161.9318 C.ar    1  UNL1        0.2270
     33 N         137.6279  141.0943  162.3123 N.ar    1  UNL1       -0.1767
     34 O         137.5590  138.5707  161.6982 O.3     1  UNL1       -0.4602
     35 C         139.9953  137.9320  162.3356 C.3     1  UNL1        0.0512
     36 C         138.5185  137.8197  162.5730 C.3     1  UNL1        0.2072
     37 O         137.6968  143.6178  162.9264 O.3     1  UNL1       -0.4640
     38 C         138.8482  144.4752  163.3612 C.3     1  UNL1        0.1678
     39 C         139.5143  144.2233  164.6814 C.3     1  UNL1        0.0473
     40 C         139.3337  145.5845  162.4758 C.3     1  UNL1        0.0473
     41 C         137.7569  142.4262  157.7615 C.3     1  UNL1        0.0491
     42 C         137.1166  141.7249  156.6003 C.3     1  UNL1        0.0750
     43 N         136.6771  142.5097  155.3999 N.3     1  UNL1       -0.2702
     44 C         135.9120  141.8338  154.3010 C.3     1  UNL1        0.0897
     45 C         137.0027  143.9705  155.2985 C.3     1  UNL1        0.0897
@<TRIPOS>BOND
     1    35    36    1
     2    36    34    1
     3    34    28    1
     4    28    29   ar
     5    29    30   ar
     6    30    25    1
     7    25    26    1
     8    25    41    1
     9    41    42    1
    10    42    43    1
    11    43    44    1
    12    43    45    1
    13    25     1    1
    14     1    15    1
    15    15    16   ar
    16    16    17   ar
    17    17    21    1
    18    21    22    1
    19    17    18   ar
    20    18    19   ar
    21    19    23    1
    22    23    24    1
    23    19    20   ar
    24     1     2    1
    25     2     3   ar
    26     3     4   ar
    27     4     5   ar
    28     5     6   ar
    29     6     7    1
    30     6     8   ar
    31     8     9   ar
    32     9    10   ar
    33    10    11   ar
    34    11    12   ar
    35    12    13    1
    36    13    14    1
    37    30    31   ar
    38    31    32   ar
    39    32    37    1
    40    37    38    1
    41    38    39    1
    42    38    40    1
    43    32    33   ar
    44    33    28   ar
    45    20    15   ar
    46    12     2   ar
    47    10     4   ar
    48    26    27    1
