@<TRIPOS>MOLECULE
*****
 30 33 0 0 0
SMALL
GASTEIGER

@<TRIPOS>ATOM
      1 C         139.2142  139.5393  163.4650 C.ar    1  UNL1        0.0001
      2 C         138.8651  138.2240  162.8341 C.ar    1  UNL1        0.0014
      3 C         138.8789  138.0813  161.3409 C.ar    1  UNL1        0.0199
      4 C         139.2417  139.2539  160.4787 C.ar    1  UNL1        0.1222
      5 C         139.5908  140.5692  161.1097 C.ar    1  UNL1        0.0199
      6 C         139.5770  140.7119  162.6028 C.ar    1  UNL1        0.0014
      7 C         139.1728  139.9675  167.9444 C.ar    1  UNL1       -0.0208
      8 C         138.2280  139.0153  167.2733 C.ar    1  UNL1       -0.0042
      9 C         138.2418  138.8726  165.7802 C.ar    1  UNL1       -0.0003
     10 C         139.2004  139.6821  164.9582 C.ar    1  UNL1       -0.0000
     11 C         140.1453  140.6343  165.6293 C.ar    1  UNL1       -0.0003
     12 C         140.1315  140.7770  167.1224 C.ar    1  UNL1       -0.0042
     13 C         139.1591  140.1103  169.4376 C.3     1  UNL1        0.0437
     14 C         140.4302  139.9512  170.2179 C.3     1  UNL1        0.0768
     15 C         139.9719  143.1657  170.5441 C.3     1  UNL1        0.0173
     16 C         141.2836  142.4833  170.2914 C.3     1  UNL1        0.0576
     17 C         142.6148  143.1586  170.1442 C.3     1  UNL1        0.0174
     18 C         143.6483  142.0984  169.9033 C.3     1  UNL1        0.0187
     19 C         142.9557  140.7678  169.9016 C.3     1  UNL1        0.0721
     20 N         141.4942  141.0058  170.1414 N.3     1  UNL1       -0.2737
     21 S         139.2555  139.1111  158.9856 S.O2    1  UNL1        0.0634
     22 O         140.5813  138.4141  159.0645 O.2     1  UNL1       -0.1528
     23 O         137.9297  139.8082  158.9068 O.2     1  UNL1       -0.1528
     24 N         139.2693  138.9684  157.4925 N.3     1  UNL1       -0.1530
     25 C         139.7307  137.7644  156.7261 C.3     1  UNL1        0.0984
     26 C         139.5707  138.0565  155.2636 C.3     1  UNL1        0.0499
     27 C         139.0103  139.4411  155.1261 C.3     1  UNL1        0.1296
     28 O         138.6920  140.1396  153.8373 O.3     1  UNL1       -0.3829
     29 C         138.8240  140.0047  156.5037 C.3     1  UNL1        0.1249
     30 H         138.9047  139.5560  153.0922 H       1  UNL1        0.2104
@<TRIPOS>BOND
     1    16    15    1
     2    16    17    1
     3    17    18    1
     4    18    19    1
     5    19    20    1
     6    20    14    1
     7    14    13    1
     8    13     7    1
     9     7     8   ar
    10     8     9   ar
    11     9    10   ar
    12    10     1    1
    13     1     2   ar
    14     2     3   ar
    15     3     4   ar
    16     4    21    1
    17    21    22    2
    18    21    23    2
    19    21    24    1
    20    24    25    1
    21    25    26    1
    22    26    27    1
    23    27    28    1
    24    27    29    1
    25     4     5   ar
    26     5     6   ar
    27    10    11   ar
    28    11    12   ar
    29    20    16    1
    30    12     7   ar
    31     6     1   ar
    32    29    24    1
    33    28    30    1
@<TRIPOS>MOLECULE
*****
 30 33 0 0 0
SMALL
GASTEIGER

@<TRIPOS>ATOM
      1 C         140.8337  139.0547  163.4465 C.ar    1  UNL1        0.0001
      2 C         141.6604  137.8420  163.1370 C.ar    1  UNL1        0.0014
      3 C         142.1673  137.6155  161.7435 C.ar    1  UNL1        0.0199
      4 C         141.8474  138.6018  160.6595 C.ar    1  UNL1        0.1222
      5 C         141.0206  139.8145  160.9691 C.ar    1  UNL1        0.0199
      6 C         140.5138  140.0410  162.3626 C.ar    1  UNL1        0.0014
      7 C         139.3132  139.7343  167.6270 C.ar    1  UNL1       -0.0208
      8 C         140.6990  140.1697  167.2529 C.ar    1  UNL1       -0.0042
      9 C         141.2058  139.9432  165.8595 C.ar    1  UNL1       -0.0003
     10 C         140.3268  139.2812  164.8400 C.ar    1  UNL1       -0.0000
     11 C         138.9410  138.8458  165.2141 C.ar    1  UNL1       -0.0003
     12 C         138.4342  139.0723  166.6076 C.ar    1  UNL1       -0.0042
     13 C         138.8064  139.9608  169.0205 C.3     1  UNL1        0.0437
     14 C         139.7732  140.2232  170.1368 C.3     1  UNL1        0.0768
     15 C         143.0266  140.4543  170.2440 C.3     1  UNL1        0.0173
     16 C         142.0619  141.6024  170.2075 C.3     1  UNL1        0.0576
     17 C         142.4233  143.0582  170.2138 C.3     1  UNL1        0.0174
     18 C         141.1512  143.8518  170.1684 C.3     1  UNL1        0.0187
     19 C         140.0036  142.8863  170.1341 C.3     1  UNL1        0.0721
     20 N         140.5665  141.4962  170.1582 N.3     1  UNL1       -0.2737
     21 S         142.3542  138.3753  159.2660 S.O2    1  UNL1        0.0634
     22 O         143.0582  137.1325  159.7240 O.2     1  UNL1       -0.1528
     23 O         141.6502  139.6181  158.8080 O.2     1  UNL1       -0.1528
     24 N         142.8610  138.1489  157.8726 N.3     1  UNL1       -0.1530
     25 C         143.3580  139.2067  156.9323 C.3     1  UNL1        0.0984
     26 C         143.7640  138.5364  155.6533 C.3     1  UNL1        0.0499
     27 C         143.5179  137.0643  155.8031 C.3     1  UNL1        0.1296
     28 O         143.7833  136.0158  154.7637 O.3     1  UNL1       -0.3829
     29 C         142.9598  136.8248  157.1746 C.3     1  UNL1        0.1249
     30 H         144.1435  136.4347  153.9665 H       1  UNL1        0.2104
@<TRIPOS>BOND
     1    16    15    1
     2    16    17    1
     3    17    18    1
     4    18    19    1
     5    19    20    1
     6    20    14    1
     7    14    13    1
     8    13     7    1
     9     7     8   ar
    10     8     9   ar
    11     9    10   ar
    12    10     1    1
    13     1     2   ar
    14     2     3   ar
    15     3     4   ar
    16     4    21    1
    17    21    22    2
    18    21    23    2
    19    21    24    1
    20    24    25    1
    21    25    26    1
    22    26    27    1
    23    27    28    1
    24    27    29    1
    25     4     5   ar
    26     5     6   ar
    27    10    11   ar
    28    11    12   ar
    29    20    16    1
    30    12     7   ar
    31     6     1   ar
    32    29    24    1
    33    28    30    1
@<TRIPOS>MOLECULE
*****
 30 33 0 0 0
SMALL
GASTEIGER

@<TRIPOS>ATOM
      1 C         142.0167  143.9205  162.0838 C.ar    1  UNL1        0.0001
      2 C         142.7728  143.3220  160.9348 C.ar    1  UNL1        0.0014
      3 C         142.5057  143.7914  159.5354 C.ar    1  UNL1        0.0199
      4 C         141.4826  144.8594  159.2850 C.ar    1  UNL1        0.1222
      5 C         140.7266  145.4579  160.4340 C.ar    1  UNL1        0.0199
      6 C         140.9936  144.9885  161.8334 C.ar    1  UNL1        0.0014
      7 C         142.8177  142.5122  166.2820 C.ar    1  UNL1       -0.0208
      8 C         141.4077  142.6097  165.7798 C.ar    1  UNL1       -0.0042
      9 C         141.1407  143.0791  164.3805 C.ar    1  UNL1       -0.0003
     10 C         142.2838  143.4511  163.4832 C.ar    1  UNL1       -0.0000
     11 C         143.6938  143.3536  163.9854 C.ar    1  UNL1       -0.0003
     12 C         143.9608  142.8842  165.3848 C.ar    1  UNL1       -0.0042
     13 C         143.0847  142.0428  167.6815 C.3     1  UNL1        0.0437
     14 C         142.6153  140.6875  168.1203 C.3     1  UNL1        0.0768
     15 C         139.5366  139.9437  167.3344 C.3     1  UNL1        0.0173
     16 C         140.0510  140.2232  168.7154 C.3     1  UNL1        0.0576
     17 C         139.2407  140.2099  169.9776 C.3     1  UNL1        0.0174
     18 C         140.1551  140.5435  171.1190 C.3     1  UNL1        0.0187
     19 C         141.5305  140.7630  170.5621 C.3     1  UNL1        0.0721
     20 N         141.4662  140.5650  169.0767 N.3     1  UNL1       -0.2737
     21 S         141.2156  145.3288  157.8856 S.O2    1  UNL1        0.0634
     22 O         139.9589  144.5106  157.8509 O.2     1  UNL1       -0.1528
     23 O         142.4723  146.1471  157.9203 O.2     1  UNL1       -0.1528
     24 N         140.9485  145.7983  156.4862 N.3     1  UNL1       -0.1530
     25 C         141.5438  145.2240  155.2349 C.3     1  UNL1        0.0984
     26 C         141.0025  145.9952  154.0678 C.3     1  UNL1        0.0499
     27 C         140.0726  147.0462  154.5978 C.3     1  UNL1        0.1296
     28 O         139.3100  148.0437  153.7773 O.3     1  UNL1       -0.3829
     29 C         140.0393  146.9244  156.0925 C.3     1  UNL1        0.1249
     30 H         139.5086  147.9086  152.8375 H       1  UNL1        0.2104
@<TRIPOS>BOND
     1    16    15    1
     2    16    17    1
     3    17    18    1
     4    18    19    1
     5    19    20    1
     6    20    14    1
     7    14    13    1
     8    13     7    1
     9     7     8   ar
    10     8     9   ar
    11     9    10   ar
    12    10     1    1
    13     1     2   ar
    14     2     3   ar
    15     3     4   ar
    16     4    21    1
    17    21    22    2
    18    21    23    2
    19    21    24    1
    20    24    25    1
    21    25    26    1
    22    26    27    1
    23    27    28    1
    24    27    29    1
    25     4     5   ar
    26     5     6   ar
    27    10    11   ar
    28    11    12   ar
    29    20    16    1
    30    12     7   ar
    31     6     1   ar
    32    29    24    1
    33    28    30    1
@<TRIPOS>MOLECULE
*****
 30 33 0 0 0
SMALL
GASTEIGER

@<TRIPOS>ATOM
      1 C         141.2437  138.7794  162.3297 C.ar    1  UNL1        0.0001
      2 C         140.8045  140.1387  162.7874 C.ar    1  UNL1        0.0014
      3 C         140.7048  140.4405  164.2533 C.ar    1  UNL1        0.0199
      4 C         141.0443  139.3830  165.2616 C.ar    1  UNL1        0.1222
      5 C         141.4835  138.0237  164.8038 C.ar    1  UNL1        0.0199
      6 C         141.5832  137.7220  163.3379 C.ar    1  UNL1        0.0014
      7 C         141.5430  137.8740  157.9319 C.ar    1  UNL1       -0.0208
      8 C         142.7237  137.6421  158.8274 C.ar    1  UNL1       -0.0042
      9 C         142.6240  137.9439  160.2933 C.ar    1  UNL1       -0.0003
     10 C         141.3434  138.4776  160.8637 C.ar    1  UNL1       -0.0000
     11 C         140.1627  138.7095  159.9682 C.ar    1  UNL1       -0.0003
     12 C         140.2624  138.4077  158.5023 C.ar    1  UNL1       -0.0042
     13 C         141.6427  137.5721  156.4659 C.3     1  UNL1        0.0437
     14 C         142.6790  136.6092  155.9672 C.3     1  UNL1        0.0768
     15 C         143.6406  134.0766  157.7867 C.3     1  UNL1        0.0173
     16 C         142.7603  134.0073  156.5742 C.3     1  UNL1        0.0576
     17 C         142.1673  132.7617  155.9852 C.3     1  UNL1        0.0174
     18 C         141.3589  133.1560  154.7848 C.3     1  UNL1        0.0187
     19 C         141.4522  134.6454  154.6319 C.3     1  UNL1        0.0721
     20 N         142.3183  135.1714  155.7379 N.3     1  UNL1       -0.2737
     21 S         140.9446  139.6848  166.7275 S.O2    1  UNL1        0.0634
     22 O         139.5466  140.1907  166.5282 O.2     1  UNL1       -0.1528
     23 O         142.3425  139.1789  166.9267 O.2     1  UNL1       -0.1528
     24 N         140.8449  139.9865  168.1934 N.3     1  UNL1       -0.1530
     25 C         139.5784  140.2311  168.9591 C.3     1  UNL1        0.0984
     26 C         139.9449  140.4924  170.3899 C.3     1  UNL1        0.0499
     27 C         141.4380  140.4094  170.5085 C.3     1  UNL1        0.1296
     28 O         142.2349  140.6047  171.7643 O.3     1  UNL1       -0.3829
     29 C         141.9941  140.0967  169.1510 C.3     1  UNL1        0.1249
     30 H         141.6345  140.7959  172.5018 H       1  UNL1        0.2104
@<TRIPOS>BOND
     1    16    15    1
     2    16    17    1
     3    17    18    1
     4    18    19    1
     5    19    20    1
     6    20    14    1
     7    14    13    1
     8    13     7    1
     9     7     8   ar
    10     8     9   ar
    11     9    10   ar
    12    10     1    1
    13     1     2   ar
    14     2     3   ar
    15     3     4   ar
    16     4    21    1
    17    21    22    2
    18    21    23    2
    19    21    24    1
    20    24    25    1
    21    25    26    1
    22    26    27    1
    23    27    28    1
    24    27    29    1
    25     4     5   ar
    26     5     6   ar
    27    10    11   ar
    28    11    12   ar
    29    20    16    1
    30    12     7   ar
    31     6     1   ar
    32    29    24    1
    33    28    30    1
@<TRIPOS>MOLECULE
*****
 30 33 0 0 0
SMALL
GASTEIGER

@<TRIPOS>ATOM
      1 C         141.2807  142.0540  163.3301 C.ar    1  UNL1        0.0001
      2 C         140.2327  141.4775  162.4250 C.ar    1  UNL1        0.0014
      3 C         139.9209  142.1445  161.1182 C.ar    1  UNL1        0.0199
      4 C         140.6571  143.3881  160.7164 C.ar    1  UNL1        0.1222
      5 C         141.7052  143.9647  161.6216 C.ar    1  UNL1        0.0199
      6 C         142.0170  143.2976  162.9284 C.ar    1  UNL1        0.0014
      7 C         142.2162  140.0529  167.2506 C.ar    1  UNL1       -0.0208
      8 C         143.0610  141.1961  166.7717 C.ar    1  UNL1       -0.0042
      9 C         142.7492  141.8631  165.4649 C.ar    1  UNL1       -0.0003
     10 C         141.5925  141.3869  164.6370 C.ar    1  UNL1       -0.0000
     11 C         140.7478  140.2437  165.1159 C.ar    1  UNL1       -0.0003
     12 C         141.0596  139.5767  166.4227 C.ar    1  UNL1       -0.0042
     13 C         142.5281  139.3859  168.5575 C.3     1  UNL1        0.0437
     14 C         142.5582  140.1915  169.8224 C.3     1  UNL1        0.0768
     15 C         139.3036  140.3767  169.9728 C.3     1  UNL1        0.0173
     16 C         140.2547  141.5363  169.9979 C.3     1  UNL1        0.0576
     17 C         139.8769  142.9846  170.0965 C.3     1  UNL1        0.0174
     18 C         141.1394  143.7946  170.0883 C.3     1  UNL1        0.0187
     19 C         142.2975  142.8468  169.9846 C.3     1  UNL1        0.0721
     20 N         141.7507  141.4512  169.9287 N.3     1  UNL1       -0.2737
     21 S         140.3454  144.0552  159.4096 S.O2    1  UNL1        0.0634
     22 O         139.7573  145.2224  160.1457 O.2     1  UNL1       -0.1528
     23 O         140.9334  142.8880  158.6735 O.2     1  UNL1       -0.1528
     24 N         140.0336  144.7223  158.1028 N.3     1  UNL1       -0.1530
     25 C         139.3923  144.0730  156.9124 C.3     1  UNL1        0.0984
     26 C         139.2707  145.1052  155.8308 C.3     1  UNL1        0.0499
     27 C         139.8369  146.3924  156.3529 C.3     1  UNL1        0.1296
     28 O         139.9175  147.6888  155.6025 O.3     1  UNL1       -0.3829
     29 C         140.3084  146.1558  157.7570 C.3     1  UNL1        0.1249
     30 H         139.5438  147.5723  154.7149 H       1  UNL1        0.2104
@<TRIPOS>BOND
     1    16    15    1
     2    16    17    1
     3    17    18    1
     4    18    19    1
     5    19    20    1
     6    20    14    1
     7    14    13    1
     8    13     7    1
     9     7     8   ar
    10     8     9   ar
    11     9    10   ar
    12    10     1    1
    13     1     2   ar
    14     2     3   ar
    15     3     4   ar
    16     4    21    1
    17    21    22    2
    18    21    23    2
    19    21    24    1
    20    24    25    1
    21    25    26    1
    22    26    27    1
    23    27    28    1
    24    27    29    1
    25     4     5   ar
    26     5     6   ar
    27    10    11   ar
    28    11    12   ar
    29    20    16    1
    30    12     7   ar
    31     6     1   ar
    32    29    24    1
    33    28    30    1
@<TRIPOS>MOLECULE
*****
 30 33 0 0 0
SMALL
GASTEIGER

@<TRIPOS>ATOM
      1 C         141.6938  143.8775  161.9622 C.ar    1  UNL1        0.0001
      2 C         140.7155  144.9733  161.6589 C.ar    1  UNL1        0.0014
      3 C         140.5546  145.4667  160.2515 C.ar    1  UNL1        0.0199
      4 C         141.3720  144.8643  159.1474 C.ar    1  UNL1        0.1222
      5 C         142.3504  143.7684  159.4508 C.ar    1  UNL1        0.0199
      6 C         142.5113  143.2751  160.8582 C.ar    1  UNL1        0.0014
      7 C         142.1766  142.3972  166.1842 C.ar    1  UNL1       -0.0208
      8 C         143.3145  142.2806  165.2139 C.ar    1  UNL1       -0.0042
      9 C         143.1535  142.7741  163.8066 C.ar    1  UNL1       -0.0003
     10 C         141.8547  143.3841  163.3696 C.ar    1  UNL1       -0.0000
     11 C         140.7168  143.5006  164.3399 C.ar    1  UNL1       -0.0003
     12 C         140.8778  143.0072  165.7472 C.ar    1  UNL1       -0.0042
     13 C         142.3375  141.9038  167.5916 C.3     1  UNL1        0.0437
     14 C         141.8515  140.5352  167.9668 C.3     1  UNL1        0.0768
     15 C         142.3024  138.7232  165.2905 C.3     1  UNL1        0.0173
     16 C         140.9823  139.0409  165.9279 C.3     1  UNL1        0.0576
     17 C         139.6377  138.5816  165.4472 C.3     1  UNL1        0.0174
     18 C         138.5994  139.1306  166.3802 C.3     1  UNL1        0.0187
     19 C         139.3024  139.9293  167.4377 C.3     1  UNL1        0.0721
     20 N         140.7750  139.8738  167.1581 N.3     1  UNL1       -0.2737
     21 S         141.2111  145.3577  157.7401 S.O2    1  UNL1        0.0634
     22 O         142.4075  146.2454  157.9146 O.2     1  UNL1       -0.1528
     23 O         140.0148  144.4699  157.5656 O.2     1  UNL1       -0.1528
     24 N         141.0503  145.8510  156.3328 N.3     1  UNL1       -0.1530
     25 C         141.7487  145.3062  155.1222 C.3     1  UNL1        0.0984
     26 C         141.2928  146.0943  153.9301 C.3     1  UNL1        0.0499
     27 C         140.3126  147.1262  154.4040 C.3     1  UNL1        0.1296
     28 O         139.6063  148.1320  153.5439 O.3     1  UNL1       -0.3829
     29 C         140.1628  146.9759  155.8889 C.3     1  UNL1        0.1249
     30 H         139.8799  148.0166  152.6204 H       1  UNL1        0.2104
@<TRIPOS>BOND
     1    16    15    1
     2    16    17    1
     3    17    18    1
     4    18    19    1
     5    19    20    1
     6    20    14    1
     7    14    13    1
     8    13     7    1
     9     7     8   ar
    10     8     9   ar
    11     9    10   ar
    12    10     1    1
    13     1     2   ar
    14     2     3   ar
    15     3     4   ar
    16     4    21    1
    17    21    22    2
    18    21    23    2
    19    21    24    1
    20    24    25    1
    21    25    26    1
    22    26    27    1
    23    27    28    1
    24    27    29    1
    25     4     5   ar
    26     5     6   ar
    27    10    11   ar
    28    11    12   ar
    29    20    16    1
    30    12     7   ar
    31     6     1   ar
    32    29    24    1
    33    28    30    1
@<TRIPOS>MOLECULE
*****
 30 33 0 0 0
SMALL
GASTEIGER

@<TRIPOS>ATOM
      1 C         138.6150  140.8975  162.7572 C.ar    1  UNL1        0.0001
      2 C         138.1966  139.7933  161.8322 C.ar    1  UNL1        0.0014
      3 C         138.0137  140.0694  160.3692 C.ar    1  UNL1        0.0199
      4 C         138.2492  141.4497  159.8313 C.ar    1  UNL1        0.1222
      5 C         138.6676  142.5539  160.7563 C.ar    1  UNL1        0.0199
      6 C         138.8505  142.2778  162.2193 C.ar    1  UNL1        0.0014
      7 C         139.1637  140.0693  167.1462 C.ar    1  UNL1       -0.0208
      8 C         138.3075  139.1623  166.3131 C.ar    1  UNL1       -0.0042
      9 C         138.1246  139.4383  164.8502 C.ar    1  UNL1       -0.0003
     10 C         138.7980  140.6215  164.2203 C.ar    1  UNL1       -0.0000
     11 C         139.6542  141.5285  165.0533 C.ar    1  UNL1       -0.0003
     12 C         139.8371  141.2525  166.5163 C.ar    1  UNL1       -0.0042
     13 C         139.3466  139.7933  168.6092 C.3     1  UNL1        0.0437
     14 C         139.6112  140.9241  169.5585 C.3     1  UNL1        0.0768
     15 C         140.4738  144.0497  169.9270 C.3     1  UNL1        0.0173
     16 C         141.4051  142.8740  169.9122 C.3     1  UNL1        0.0576
     17 C         142.8964  142.9285  170.0641 C.3     1  UNL1        0.0174
     18 C         143.4216  141.5254  169.9887 C.3     1  UNL1        0.0187
     19 C         142.2548  140.6038  169.7901 C.3     1  UNL1        0.0721
     20 N         141.0086  141.4373  169.7428 N.3     1  UNL1       -0.2737
     21 S         138.0663  141.7258  158.3683 S.O2    1  UNL1        0.0634
     22 O         137.6639  140.2975  158.1491 O.2     1  UNL1       -0.1528
     23 O         138.4687  143.1540  158.5875 O.2     1  UNL1       -0.1528
     24 N         137.8834  142.0018  156.9053 N.3     1  UNL1       -0.1530
     25 C         137.5014  140.9968  155.8594 C.3     1  UNL1        0.0984
     26 C         137.4323  141.7052  154.5391 C.3     1  UNL1        0.0499
     27 C         137.7716  143.1482  154.7690 C.3     1  UNL1        0.1296
     28 O         137.8231  144.2197  153.7206 O.3     1  UNL1       -0.3829
     29 C         138.0504  143.3315  156.2314 C.3     1  UNL1        0.1249
     30 H         137.6013  143.8379  152.8569 H       1  UNL1        0.2104
@<TRIPOS>BOND
     1    16    15    1
     2    16    17    1
     3    17    18    1
     4    18    19    1
     5    19    20    1
     6    20    14    1
     7    14    13    1
     8    13     7    1
     9     7     8   ar
    10     8     9   ar
    11     9    10   ar
    12    10     1    1
    13     1     2   ar
    14     2     3   ar
    15     3     4   ar
    16     4    21    1
    17    21    22    2
    18    21    23    2
    19    21    24    1
    20    24    25    1
    21    25    26    1
    22    26    27    1
    23    27    28    1
    24    27    29    1
    25     4     5   ar
    26     5     6   ar
    27    10    11   ar
    28    11    12   ar
    29    20    16    1
    30    12     7   ar
    31     6     1   ar
    32    29    24    1
    33    28    30    1
@<TRIPOS>MOLECULE
*****
 30 33 0 0 0
SMALL
GASTEIGER

@<TRIPOS>ATOM
      1 C         141.1717  140.5323  167.6316 C.ar    1  UNL1        0.0001
      2 C         142.2172  139.6215  167.0595 C.ar    1  UNL1        0.0014
      3 C         143.0642  138.7852  167.9723 C.ar    1  UNL1        0.0199
      4 C         142.8656  138.8596  169.4572 C.ar    1  UNL1        0.1222
      5 C         141.8201  139.7705  170.0293 C.ar    1  UNL1        0.0199
      6 C         140.9731  140.6068  169.1165 C.ar    1  UNL1        0.0014
      7 C         138.6309  143.0414  164.8933 C.ar    1  UNL1       -0.0208
      8 C         139.6180  143.6985  165.8118 C.ar    1  UNL1       -0.0042
      9 C         140.4650  142.8621  166.7245 C.ar    1  UNL1       -0.0003
     10 C         140.3247  141.3687  166.7188 C.ar    1  UNL1       -0.0000
     11 C         139.3376  140.7116  165.8002 C.ar    1  UNL1       -0.0003
     12 C         138.4906  141.5480  164.8875 C.ar    1  UNL1       -0.0042
     13 C         137.7839  143.8778  163.9804 C.3     1  UNL1        0.0437
     14 C         138.1069  143.9536  162.5176 C.3     1  UNL1        0.0768
     15 C         139.5928  141.3063  161.3203 C.3     1  UNL1        0.0173
     16 C         140.2160  142.6575  161.5090 C.3     1  UNL1        0.0576
     17 C         141.6316  143.0292  161.1806 C.3     1  UNL1        0.0174
     18 C         141.8236  144.4758  161.5280 C.3     1  UNL1        0.0187
     19 C         140.5265  144.9981  162.0711 C.3     1  UNL1        0.0721
     20 N         139.5331  143.8744  162.0594 N.3     1  UNL1       -0.2737
     21 S         143.7125  138.0233  170.3700 S.O2    1  UNL1        0.0634
     22 O         143.6167  139.0817  171.4286 O.2     1  UNL1       -0.1528
     23 O         143.8083  136.9650  169.3115 O.2     1  UNL1       -0.1528
     24 N         144.5595  137.1870  171.2828 N.3     1  UNL1       -0.1530
     25 C         145.7135  137.6747  172.1077 C.3     1  UNL1        0.0984
     26 C         146.2683  136.5053  172.8657 C.3     1  UNL1        0.0499
     27 C         145.4572  135.2949  172.5093 C.3     1  UNL1        0.1296
     28 O         145.6656  133.9068  173.0384 O.3     1  UNL1       -0.3829
     29 C         144.4010  135.7162  171.5311 C.3     1  UNL1        0.1249
     30 H         146.4141  133.9049  173.6553 H       1  UNL1        0.2104
@<TRIPOS>BOND
     1    16    15    1
     2    16    17    1
     3    17    18    1
     4    18    19    1
     5    19    20    1
     6    20    14    1
     7    14    13    1
     8    13     7    1
     9     7     8   ar
    10     8     9   ar
    11     9    10   ar
    12    10     1    1
    13     1     2   ar
    14     2     3   ar
    15     3     4   ar
    16     4    21    1
    17    21    22    2
    18    21    23    2
    19    21    24    1
    20    24    25    1
    21    25    26    1
    22    26    27    1
    23    27    28    1
    24    27    29    1
    25     4     5   ar
    26     5     6   ar
    27    10    11   ar
    28    11    12   ar
    29    20    16    1
    30    12     7   ar
    31     6     1   ar
    32    29    24    1
    33    28    30    1
@<TRIPOS>MOLECULE
*****
 30 33 0 0 0
SMALL
GASTEIGER

@<TRIPOS>ATOM
      1 C         142.0860  140.3254  162.5906 C.ar    1  UNL1        0.0001
      2 C         141.3527  139.7552  161.4129 C.ar    1  UNL1        0.0014
      3 C         141.9872  139.7737  160.0537 C.ar    1  UNL1        0.0199
      4 C         143.3549  140.3623  159.8724 C.ar    1  UNL1        0.1222
      5 C         144.0881  140.9326  161.0503 C.ar    1  UNL1        0.0199
      6 C         143.4537  140.9141  162.4093 C.ar    1  UNL1        0.0014
      7 C         140.1828  140.2701  166.6679 C.ar    1  UNL1       -0.0208
      8 C         140.7529  141.5462  166.1237 C.ar    1  UNL1       -0.0042
      9 C         141.3873  141.5647  164.7646 C.ar    1  UNL1       -0.0003
     10 C         141.4516  140.3069  163.9498 C.ar    1  UNL1       -0.0000
     11 C         140.8814  139.0307  164.4940 C.ar    1  UNL1       -0.0003
     12 C         140.2470  139.0123  165.8531 C.ar    1  UNL1       -0.0042
     13 C         139.5483  140.2516  168.0271 C.3     1  UNL1        0.0437
     14 C         140.3994  140.0764  169.2497 C.3     1  UNL1        0.0768
     15 C         139.9304  143.0663  170.4702 C.3     1  UNL1        0.0173
     16 C         141.2552  142.4514  170.1285 C.3     1  UNL1        0.0576
     17 C         142.5969  143.1028  170.2878 C.3     1  UNL1        0.0174
     18 C         143.6418  142.1310  169.8253 C.3     1  UNL1        0.0187
     19 C         142.9458  140.8790  169.3801 C.3     1  UNL1        0.0721
     20 N         141.4708  141.0771  169.5675 N.3     1  UNL1       -0.2737
     21 S         143.9893  140.3808  158.5133 S.O2    1  UNL1        0.0634
     22 O         143.4988  138.9852  158.2654 O.2     1  UNL1       -0.1528
     23 O         144.4798  141.7765  158.7613 O.2     1  UNL1       -0.1528
     24 N         144.6237  140.3993  157.1543 N.3     1  UNL1       -0.1530
     25 C         145.6565  141.3767  156.6765 C.3     1  UNL1        0.0984
     26 C         146.0079  141.0251  155.2613 C.3     1  UNL1        0.0499
     27 C         145.1923  139.8304  154.8644 C.3     1  UNL1        0.1296
     28 O         145.2262  139.1431  153.5315 O.3     1  UNL1       -0.3829
     29 C         144.3369  139.4437  156.0343 C.3     1  UNL1        0.1249
     30 H         145.8631  139.5909  152.9529 H       1  UNL1        0.2104
@<TRIPOS>BOND
     1    16    15    1
     2    16    17    1
     3    17    18    1
     4    18    19    1
     5    19    20    1
     6    20    14    1
     7    14    13    1
     8    13     7    1
     9     7     8   ar
    10     8     9   ar
    11     9    10   ar
    12    10     1    1
    13     1     2   ar
    14     2     3   ar
    15     3     4   ar
    16     4    21    1
    17    21    22    2
    18    21    23    2
    19    21    24    1
    20    24    25    1
    21    25    26    1
    22    26    27    1
    23    27    28    1
    24    27    29    1
    25     4     5   ar
    26     5     6   ar
    27    10    11   ar
    28    11    12   ar
    29    20    16    1
    30    12     7   ar
    31     6     1   ar
    32    29    24    1
    33    28    30    1
