@<TRIPOS>MOLECULE
*****
 34 38 0 0 0
SMALL
GASTEIGER

@<TRIPOS>ATOM
      1 N         140.7305  138.7373  163.1348 N.am    1  UNL1       -0.2495
      2 C         139.4593  138.0827  163.5880 C.3     1  UNL1        0.1267
      3 C         139.1971  138.5086  165.0022 C.ar    1  UNL1        0.0202
      4 C         138.0916  138.1792  165.9610 C.ar    1  UNL1        0.0011
      5 C         138.0954  138.7676  167.3407 C.ar    1  UNL1        0.0255
      6 C         139.2047  139.6854  167.7616 C.ar    1  UNL1        0.1108
      7 N         140.3101  140.0148  166.8028 N.ar    1  UNL1       -0.2345
      8 C         140.3063  139.4264  165.4231 C.ar    1  UNL1        0.1332
      9 C         141.2540  139.5678  164.2690 C.2     1  UNL1        0.2705
     10 O         142.5056  140.3945  164.2521 O.2     1  UNL1       -0.2679
     11 C         141.4213  139.1493  159.2486 C.ar    1  UNL1        0.1736
     12 C         140.7852  139.2989  160.5988 C.ar    1  UNL1        0.0549
     13 C         141.3666  138.5878  161.7846 C.ar    1  UNL1        0.0577
     14 C         142.5841  137.7271  161.6203 C.ar    1  UNL1        0.0182
     15 C         143.2201  137.5776  160.2701 C.ar    1  UNL1        0.0413
     16 C         142.6387  138.2887  159.0842 C.ar    1  UNL1        0.1724
     17 C         139.5248  139.4176  157.4932 C.3     1  UNL1        0.2526
     18 O         140.8398  139.8605  158.0627 O.3     1  UNL1       -0.4683
     19 O         143.2748  138.1391  157.7340 O.3     1  UNL1       -0.4709
     20 C         142.7204  137.1533  156.7488 C.3     1  UNL1        0.2228
     21 C         143.6095  136.0957  156.1648 C.3     1  UNL1        0.1200
     22 N         143.2106  134.6519  156.2456 N.3     1  UNL1       -0.2696
     23 C         142.2130  133.9621  155.3632 C.3     1  UNL1        0.0722
     24 C         142.1252  132.5284  155.7953 C.3     1  UNL1        0.0188
     25 C         143.0686  132.3321  156.9449 C.3     1  UNL1        0.0188
     26 C         143.7394  133.6446  157.2232 C.3     1  UNL1        0.0722
     27 S         139.2084  140.2739  169.1414 S.3     1  UNL1       -0.0680
     28 C         140.3457  141.1474  169.5812 C.ar    1  UNL1        0.0310
     29 C         140.2058  142.6402  169.5362 C.ar    1  UNL1        0.0088
     30 C         141.3432  143.5137  169.9759 C.ar    1  UNL1        0.0301
     31 C         142.6205  142.8945  170.4607 C.ar    1  UNL1        0.1402
     32 F         143.7578  143.7680  170.9004 F       1  UNL1       -0.2042
     33 C         142.7604  141.4017  170.5056 C.ar    1  UNL1        0.0301
     34 C         141.6231  140.5281  170.0659 C.ar    1  UNL1        0.0088
@<TRIPOS>BOND
     1    17    18    1
     2    18    11    1
     3    11    12   ar
     4    12    13   ar
     5    13     1    1
     6     1     2    1
     7     2     3    1
     8     3     4   ar
     9     4     5   ar
    10     5     6   ar
    11     6    27    1
    12    27    28    1
    13    28    29   ar
    14    29    30   ar
    15    30    31   ar
    16    31    32    1
    17    31    33   ar
    18    33    34   ar
    19     6     7   ar
    20     7     8   ar
    21     8     9    1
    22     9    10    2
    23    13    14   ar
    24    14    15   ar
    25    15    16   ar
    26    16    19    1
    27    19    20    1
    28    20    21    1
    29    21    22    1
    30    22    23    1
    31    23    24    1
    32    24    25    1
    33    25    26    1
    34    16    11   ar
    35    26    22    1
    36     9     1   am
    37     8     3   ar
    38    34    28   ar
@<TRIPOS>MOLECULE
*****
 34 38 0 0 0
SMALL
GASTEIGER

@<TRIPOS>ATOM
      1 N         142.1512  139.1463  161.6862 N.am    1  UNL1       -0.2495
      2 C         141.0098  139.5116  160.7842 C.3     1  UNL1        0.1267
      3 C         141.2170  138.8181  159.4703 C.ar    1  UNL1        0.0202
      4 C         140.4137  138.8070  158.2036 C.ar    1  UNL1        0.0011
      5 C         140.8799  138.0021  157.0269 C.ar    1  UNL1        0.0255
      6 C         142.1494  137.2082  157.1170 C.ar    1  UNL1        0.1108
      7 N         142.9527  137.2193  158.3837 N.ar    1  UNL1       -0.2345
      8 C         142.4865  138.0242  159.5603 C.ar    1  UNL1        0.1332
      9 C         143.0638  138.2270  160.9298 C.2     1  UNL1        0.2705
     10 O         144.3314  137.6176  161.4514 O.2     1  UNL1       -0.2679
     11 C         142.8034  141.5392  164.7844 C.ar    1  UNL1        0.1736
     12 C         142.6088  141.0680  163.3736 C.ar    1  UNL1        0.0549
     13 C         142.3458  139.6174  163.0969 C.ar    1  UNL1        0.0577
     14 C         142.2775  138.6380  164.2309 C.ar    1  UNL1        0.0182
     15 C         142.4721  139.1092  165.6417 C.ar    1  UNL1        0.0413
     16 C         142.7350  140.5598  165.9184 C.ar    1  UNL1        0.1724
     17 C         144.4713  143.4700  165.2744 C.3     1  UNL1        0.2526
     18 O         143.0664  142.9899  165.0610 O.3     1  UNL1       -0.4683
     19 O         142.9297  141.0309  167.3291 O.3     1  UNL1       -0.4709
     20 C         141.7409  141.3876  168.1714 C.3     1  UNL1        0.2228
     21 C         140.4666  141.8355  167.5190 C.3     1  UNL1        0.1200
     22 N         139.5633  140.8299  166.8687 N.3     1  UNL1       -0.2696
     23 C         139.0143  140.9092  165.4750 C.3     1  UNL1        0.0722
     24 C         138.1621  139.6968  165.2429 C.3     1  UNL1        0.0188
     25 C         138.1842  138.8683  166.4932 C.3     1  UNL1        0.0188
     26 C         139.0502  139.5686  167.4980 C.3     1  UNL1        0.0722
     27 S         142.6156  136.4032  155.9402 S.3     1  UNL1       -0.0680
     28 C         142.5148  134.9068  155.9679 C.ar    1  UNL1        0.0310
     29 C         143.5102  134.1024  156.7503 C.ar    1  UNL1        0.0088
     30 C         143.4093  132.6060  156.7779 C.ar    1  UNL1        0.0301
     31 C         142.3132  131.9141  156.0231 C.ar    1  UNL1        0.1402
     32 F         142.2124  130.4178  156.0508 F       1  UNL1       -0.2042
     33 C         141.3179  132.7185  155.2407 C.ar    1  UNL1        0.0301
     34 C         141.4187  134.2149  155.2130 C.ar    1  UNL1        0.0088
@<TRIPOS>BOND
     1    17    18    1
     2    18    11    1
     3    11    12   ar
     4    12    13   ar
     5    13     1    1
     6     1     2    1
     7     2     3    1
     8     3     4   ar
     9     4     5   ar
    10     5     6   ar
    11     6    27    1
    12    27    28    1
    13    28    29   ar
    14    29    30   ar
    15    30    31   ar
    16    31    32    1
    17    31    33   ar
    18    33    34   ar
    19     6     7   ar
    20     7     8   ar
    21     8     9    1
    22     9    10    2
    23    13    14   ar
    24    14    15   ar
    25    15    16   ar
    26    16    19    1
    27    19    20    1
    28    20    21    1
    29    21    22    1
    30    22    23    1
    31    23    24    1
    32    24    25    1
    33    25    26    1
    34    16    11   ar
    35    26    22    1
    36     9     1   am
    37     8     3   ar
    38    34    28   ar
@<TRIPOS>MOLECULE
*****
 34 38 0 0 0
SMALL
GASTEIGER

@<TRIPOS>ATOM
      1 N         141.5370  144.4969  160.2534 N.am    1  UNL1       -0.2495
      2 C         142.3065  144.2161  158.9969 C.3     1  UNL1        0.1267
      3 C         141.6300  144.9361  157.8682 C.ar    1  UNL1        0.0202
      4 C         141.9420  145.0246  156.4038 C.ar    1  UNL1        0.0011
      5 C         141.0663  145.8390  155.4983 C.ar    1  UNL1        0.0255
      6 C         139.8786  146.5649  156.0573 C.ar    1  UNL1        0.1108
      7 N         139.5666  146.4764  157.5218 N.ar    1  UNL1       -0.2345
      8 C         140.4423  145.6620  158.4273 C.ar    1  UNL1        0.1332
      9 C         140.3849  145.3906  159.9014 C.2     1  UNL1        0.2705
     10 O         139.3559  145.9199  160.8559 O.2     1  UNL1       -0.2679
     11 C         142.1821  141.9773  163.2510 C.ar    1  UNL1        0.1736
     12 C         141.8567  142.4986  161.8826 C.ar    1  UNL1        0.0549
     13 C         141.8625  143.9757  161.6218 C.ar    1  UNL1        0.0577
     14 C         142.1937  144.9315  162.7293 C.ar    1  UNL1        0.0182
     15 C         142.5192  144.4102  164.0976 C.ar    1  UNL1        0.0413
     16 C         142.5134  142.9331  164.3585 C.ar    1  UNL1        0.1724
     17 C         141.0495  139.6526  163.0000 C.3     1  UNL1        0.2526
     18 O         142.1763  140.5001  163.5118 O.3     1  UNL1       -0.4683
     19 O         142.8388  142.4119  165.7268 O.3     1  UNL1       -0.4709
     20 C         141.7380  141.9490  166.6345 C.3     1  UNL1        0.2228
     21 C         140.5508  142.8312  166.8839 C.3     1  UNL1        0.1200
     22 N         139.5541  143.0745  165.7895 N.3     1  UNL1       -0.2696
     23 C         139.0851  144.4147  165.3061 C.3     1  UNL1        0.0722
     24 C         138.0926  144.1888  164.2043 C.3     1  UNL1        0.0188
     25 C         137.9482  142.7088  164.0068 C.3     1  UNL1        0.0188
     26 C         138.8515  142.0202  164.9866 C.3     1  UNL1        0.0722
     27 S         139.0029  147.3793  155.1517 S.3     1  UNL1       -0.0680
     28 C         139.2940  148.8350  154.9371 C.ar    1  UNL1        0.0310
     29 C         140.3373  149.2527  153.9435 C.ar    1  UNL1        0.0088
     30 C         140.6283  150.7085  153.7289 C.ar    1  UNL1        0.0301
     31 C         139.8761  151.7465  154.5078 C.ar    1  UNL1        0.1402
     32 F         140.1672  153.2022  154.2931 F       1  UNL1       -0.2042
     33 C         138.8329  151.3288  155.5013 C.ar    1  UNL1        0.0301
     34 C         138.5418  149.8731  155.7160 C.ar    1  UNL1        0.0088
@<TRIPOS>BOND
     1    17    18    1
     2    18    11    1
     3    11    12   ar
     4    12    13   ar
     5    13     1    1
     6     1     2    1
     7     2     3    1
     8     3     4   ar
     9     4     5   ar
    10     5     6   ar
    11     6    27    1
    12    27    28    1
    13    28    29   ar
    14    29    30   ar
    15    30    31   ar
    16    31    32    1
    17    31    33   ar
    18    33    34   ar
    19     6     7   ar
    20     7     8   ar
    21     8     9    1
    22     9    10    2
    23    13    14   ar
    24    14    15   ar
    25    15    16   ar
    26    16    19    1
    27    19    20    1
    28    20    21    1
    29    21    22    1
    30    22    23    1
    31    23    24    1
    32    24    25    1
    33    25    26    1
    34    16    11   ar
    35    26    22    1
    36     9     1   am
    37     8     3   ar
    38    34    28   ar
@<TRIPOS>MOLECULE
*****
 34 38 0 0 0
SMALL
GASTEIGER

@<TRIPOS>ATOM
      1 N         141.5423  140.0907  159.1529 N.am    1  UNL1       -0.2495
      2 C         140.4143  139.4789  158.3762 C.3     1  UNL1        0.1267
      3 C         140.9695  138.3422  157.5701 C.ar    1  UNL1        0.0202
      4 C         140.3256  137.3781  156.6184 C.ar    1  UNL1        0.0011
      5 C         141.1527  136.3233  155.9453 C.ar    1  UNL1        0.0255
      6 C         142.6239  136.2326  156.2238 C.ar    1  UNL1        0.1108
      7 N         143.2678  137.1968  157.1755 N.ar    1  UNL1       -0.2345
      8 C         142.4406  138.2516  157.8486 C.ar    1  UNL1        0.1332
      9 C         142.7946  139.3322  158.8268 C.2     1  UNL1        0.2705
     10 O         144.1611  139.6062  159.3816 O.2     1  UNL1       -0.2679
     11 C         141.4866  143.8202  160.5086 C.ar    1  UNL1        0.1736
     12 C         141.5923  142.6545  159.5705 C.ar    1  UNL1        0.0549
     13 C         141.4365  141.2564  160.0910 C.ar    1  UNL1        0.0577
     14 C         141.1749  141.0240  161.5496 C.ar    1  UNL1        0.0182
     15 C         141.0691  142.1897  162.4876 C.ar    1  UNL1        0.0413
     16 C         141.2249  143.5878  161.9672 C.ar    1  UNL1        0.1724
     17 C         141.4699  145.4973  158.5243 C.3     1  UNL1        0.2526
     18 O         141.6424  145.2184  159.9880 O.3     1  UNL1       -0.4683
     19 O         141.1192  144.7535  162.9052 O.3     1  UNL1       -0.4709
     20 C         142.3210  145.2021  163.6825 C.3     1  UNL1        0.2228
     21 C         143.6988  144.9444  163.1484 C.3     1  UNL1        0.1200
     22 N         144.3053  143.5774  163.2661 N.3     1  UNL1       -0.2696
     23 C         144.5860  142.8445  164.5444 C.3     1  UNL1        0.0722
     24 C         145.1917  141.5176  164.1945 C.3     1  UNL1        0.0188
     25 C         145.2854  141.4305  162.6999 C.3     1  UNL1        0.0188
     26 C         144.7375  142.7035  162.1262 C.3     1  UNL1        0.0722
     27 S         143.4510  135.1778  155.5506 S.3     1  UNL1       -0.0680
     28 C         143.3525  133.7491  155.9970 C.ar    1  UNL1        0.0310
     29 C         142.3089  132.8488  155.4051 C.ar    1  UNL1        0.0088
     30 C         142.2103  131.4201  155.8515 C.ar    1  UNL1        0.0301
     31 C         143.1553  130.8918  156.8896 C.ar    1  UNL1        0.1402
     32 F         143.0568  129.4632  157.3360 F       1  UNL1       -0.2042
     33 C         144.1989  131.7921  157.4815 C.ar    1  UNL1        0.0301
     34 C         144.2975  133.2208  157.0352 C.ar    1  UNL1        0.0088
@<TRIPOS>BOND
     1    17    18    1
     2    18    11    1
     3    11    12   ar
     4    12    13   ar
     5    13     1    1
     6     1     2    1
     7     2     3    1
     8     3     4   ar
     9     4     5   ar
    10     5     6   ar
    11     6    27    1
    12    27    28    1
    13    28    29   ar
    14    29    30   ar
    15    30    31   ar
    16    31    32    1
    17    31    33   ar
    18    33    34   ar
    19     6     7   ar
    20     7     8   ar
    21     8     9    1
    22     9    10    2
    23    13    14   ar
    24    14    15   ar
    25    15    16   ar
    26    16    19    1
    27    19    20    1
    28    20    21    1
    29    21    22    1
    30    22    23    1
    31    23    24    1
    32    24    25    1
    33    25    26    1
    34    16    11   ar
    35    26    22    1
    36     9     1   am
    37     8     3   ar
    38    34    28   ar
@<TRIPOS>MOLECULE
*****
 34 38 0 0 0
SMALL
GASTEIGER

@<TRIPOS>ATOM
      1 N         141.8065  144.2814  160.4424 N.am    1  UNL1       -0.2495
      2 C         142.5385  144.0072  159.1622 C.3     1  UNL1        0.1267
      3 C         141.7932  144.6811  158.0485 C.ar    1  UNL1        0.0202
      4 C         142.0464  144.7550  156.5719 C.ar    1  UNL1        0.0011
      5 C         141.1069  145.5197  155.6873 C.ar    1  UNL1        0.0255
      6 C         139.9143  146.2104  156.2792 C.ar    1  UNL1        0.1108
      7 N         139.6610  146.1365  157.7558 N.ar    1  UNL1       -0.2345
      8 C         140.6005  145.3719  158.6404 C.ar    1  UNL1        0.1332
      9 C         140.6088  145.1248  160.1199 C.2     1  UNL1        0.2705
     10 O         139.5969  145.6322  161.1042 O.2     1  UNL1       -0.2679
     11 C         142.4787  141.8579  163.5124 C.ar    1  UNL1        0.1736
     12 C         142.0825  142.3421  162.1491 C.ar    1  UNL1        0.0549
     13 C         142.2027  143.7973  161.8057 C.ar    1  UNL1        0.0577
     14 C         142.7192  144.7683  162.8257 C.ar    1  UNL1        0.0182
     15 C         143.1154  144.2841  164.1890 C.ar    1  UNL1        0.0413
     16 C         142.9952  142.8289  164.5323 C.ar    1  UNL1        0.1724
     17 C         143.1564  139.3845  163.0964 C.3     1  UNL1        0.2526
     18 O         142.3584  140.4026  163.8557 O.3     1  UNL1       -0.4683
     19 O         143.3914  142.3448  165.8956 O.3     1  UNL1       -0.4709
     20 C         142.3447  142.1275  166.9479 C.3     1  UNL1        0.2228
     21 C         140.9192  142.5082  166.6777 C.3     1  UNL1        0.1200
     22 N         139.9294  141.4612  166.2603 N.3     1  UNL1       -0.2696
     23 C         139.6242  140.1920  166.9991 C.3     1  UNL1        0.0722
     24 C         138.5773  139.4460  166.2262 C.3     1  UNL1        0.0188
     25 C         138.2354  140.2542  165.0096 C.3     1  UNL1        0.0188
     26 C         139.0711  141.4996  165.0307 C.3     1  UNL1        0.0722
     27 S         138.9748  146.9751  155.3944 S.3     1  UNL1       -0.0680
     28 C         139.1660  148.4493  155.1940 C.ar    1  UNL1        0.0310
     29 C         138.4741  149.4252  156.0989 C.ar    1  UNL1        0.0088
     30 C         138.6653  150.8995  155.8984 C.ar    1  UNL1        0.0301
     31 C         139.5484  151.3977  154.7931 C.ar    1  UNL1        0.1402
     32 F         139.7395  152.8719  154.5926 F       1  UNL1       -0.2042
     33 C         140.2402  150.4218  153.8881 C.ar    1  UNL1        0.0301
     34 C         140.0491  148.9476  154.0886 C.ar    1  UNL1        0.0088
@<TRIPOS>BOND
     1    17    18    1
     2    18    11    1
     3    11    12   ar
     4    12    13   ar
     5    13     1    1
     6     1     2    1
     7     2     3    1
     8     3     4   ar
     9     4     5   ar
    10     5     6   ar
    11     6    27    1
    12    27    28    1
    13    28    29   ar
    14    29    30   ar
    15    30    31   ar
    16    31    32    1
    17    31    33   ar
    18    33    34   ar
    19     6     7   ar
    20     7     8   ar
    21     8     9    1
    22     9    10    2
    23    13    14   ar
    24    14    15   ar
    25    15    16   ar
    26    16    19    1
    27    19    20    1
    28    20    21    1
    29    21    22    1
    30    22    23    1
    31    23    24    1
    32    24    25    1
    33    25    26    1
    34    16    11   ar
    35    26    22    1
    36     9     1   am
    37     8     3   ar
    38    34    28   ar
@<TRIPOS>MOLECULE
*****
 34 38 0 0 0
SMALL
GASTEIGER

@<TRIPOS>ATOM
      1 N         141.0543  139.3961  160.2757 N.am    1  UNL1       -0.2495
      2 C         141.5278  140.8090  160.4476 C.3     1  UNL1        0.1267
      3 C         141.2296  141.2297  161.8562 C.ar    1  UNL1        0.0202
      4 C         141.4720  142.5136  162.5929 C.ar    1  UNL1        0.0011
      5 C         141.0566  142.6446  164.0282 C.ar    1  UNL1        0.0255
      6 C         140.3989  141.4917  164.7269 C.ar    1  UNL1        0.1108
      7 N         140.1564  140.2078  163.9902 N.ar    1  UNL1       -0.2345
      8 C         140.5718  140.0768  162.5548 C.ar    1  UNL1        0.1332
      9 C         140.4635  138.9436  161.5780 C.2     1  UNL1        0.2705
     10 O         139.8688  137.5947  161.8550 O.2     1  UNL1       -0.2679
     11 C         140.0297  137.5067  156.9394 C.ar    1  UNL1        0.1736
     12 C         139.9299  138.3237  158.1935 C.ar    1  UNL1        0.0549
     13 C         141.1542  138.5792  159.0216 C.ar    1  UNL1        0.0577
     14 C         142.4783  138.0178  158.5957 C.ar    1  UNL1        0.0182
     15 C         142.5781  137.2009  157.3416 C.ar    1  UNL1        0.0413
     16 C         141.3539  136.9453  156.5135 C.ar    1  UNL1        0.1724
     17 C         138.5169  138.1085  154.9148 C.3     1  UNL1        0.2526
     18 O         138.8054  137.2512  156.1113 O.3     1  UNL1       -0.4683
     19 O         141.4537  136.1284  155.2594 O.3     1  UNL1       -0.4709
     20 C         142.7330  135.4199  154.9257 C.3     1  UNL1        0.2228
     21 C         142.7932  133.9217  154.9662 C.3     1  UNL1        0.1200
     22 N         143.6788  133.2333  155.9621 N.3     1  UNL1       -0.2696
     23 C         144.4061  131.9389  155.7487 C.3     1  UNL1        0.0722
     24 C         145.1694  131.6241  157.0010 C.3     1  UNL1        0.0188
     25 C         144.9139  132.7240  157.9884 C.3     1  UNL1        0.0188
     26 C         143.9927  133.7185  157.3464 C.3     1  UNL1        0.0722
     27 S         139.9835  141.6228  166.1623 S.3     1  UNL1       -0.0680
     28 C         140.6921  140.8338  167.2231 C.ar    1  UNL1        0.0310
     29 C         142.0392  140.2377  166.9405 C.ar    1  UNL1        0.0088
     30 C         142.7478  139.4487  168.0014 C.ar    1  UNL1        0.0301
     31 C         142.1092  139.2558  169.3449 C.ar    1  UNL1        0.1402
     32 F         142.8178  138.4668  170.4057 F       1  UNL1       -0.2042
     33 C         140.7621  139.8519  169.6275 C.ar    1  UNL1        0.0301
     34 C         140.0535  140.6409  168.5667 C.ar    1  UNL1        0.0088
@<TRIPOS>BOND
     1    17    18    1
     2    18    11    1
     3    11    12   ar
     4    12    13   ar
     5    13     1    1
     6     1     2    1
     7     2     3    1
     8     3     4   ar
     9     4     5   ar
    10     5     6   ar
    11     6    27    1
    12    27    28    1
    13    28    29   ar
    14    29    30   ar
    15    30    31   ar
    16    31    32    1
    17    31    33   ar
    18    33    34   ar
    19     6     7   ar
    20     7     8   ar
    21     8     9    1
    22     9    10    2
    23    13    14   ar
    24    14    15   ar
    25    15    16   ar
    26    16    19    1
    27    19    20    1
    28    20    21    1
    29    21    22    1
    30    22    23    1
    31    23    24    1
    32    24    25    1
    33    25    26    1
    34    16    11   ar
    35    26    22    1
    36     9     1   am
    37     8     3   ar
    38    34    28   ar
@<TRIPOS>MOLECULE
*****
 34 38 0 0 0
SMALL
GASTEIGER

@<TRIPOS>ATOM
      1 N         143.1477  140.1005  158.6350 N.am    1  UNL1       -0.2495
      2 C         143.6525  140.0791  157.2226 C.3     1  UNL1        0.1267
      3 C         143.3823  138.7174  156.6544 C.ar    1  UNL1        0.0202
      4 C         143.6612  138.1183  155.3078 C.ar    1  UNL1        0.0011
      5 C         143.2683  136.6992  155.0224 C.ar    1  UNL1        0.0255
      6 C         142.5964  135.8791  156.0836 C.ar    1  UNL1        0.1108
      7 N         142.3175  136.4782  157.4301 N.ar    1  UNL1       -0.2345
      8 C         142.7104  137.8973  157.7155 C.ar    1  UNL1        0.1332
      9 C         142.5654  138.7522  158.9396 C.2     1  UNL1        0.2705
     10 O         141.9468  138.3323  160.2399 O.2     1  UNL1       -0.2679
     11 C         144.2544  142.4198  161.6592 C.ar    1  UNL1        0.1736
     12 C         144.1886  141.2545  160.7170 C.ar    1  UNL1        0.0549
     13 C         143.2135  141.2658  159.5772 C.ar    1  UNL1        0.0577
     14 C         142.3043  142.4423  159.3797 C.ar    1  UNL1        0.0182
     15 C         142.3702  143.6076  160.3219 C.ar    1  UNL1        0.0413
     16 C         143.3452  143.5963  161.4617 C.ar    1  UNL1        0.1724
     17 C         144.8270  141.8335  164.1247 C.3     1  UNL1        0.2526
     18 O         145.2295  142.4085  162.7991 O.3     1  UNL1       -0.4683
     19 O         143.4110  144.7616  162.4039 O.3     1  UNL1       -0.4709
     20 C         142.3081  144.9880  163.3950 C.3     1  UNL1        0.2228
     21 C         140.9847  145.5237  162.9350 C.3     1  UNL1        0.1200
     22 N         139.7155  144.8309  163.3342 N.3     1  UNL1       -0.2696
     23 C         139.0954  144.8449  164.6999 C.3     1  UNL1        0.0722
     24 C         137.8402  144.0252  164.6475 C.3     1  UNL1        0.0188
     25 C         137.6846  143.5047  163.2493 C.3     1  UNL1        0.0188
     26 C         138.8435  144.0027  162.4376 C.3     1  UNL1        0.0722
     27 S         142.2035  134.4598  155.7981 S.3     1  UNL1       -0.0680
     28 C         142.9553  133.3304  156.4375 C.ar    1  UNL1        0.0310
     29 C         144.1664  133.6149  157.2755 C.ar    1  UNL1        0.0088
     30 C         144.9183  132.4853  157.9149 C.ar    1  UNL1        0.0301
     31 C         144.4590  131.0713  157.7164 C.ar    1  UNL1        0.1402
     32 F         145.2109  129.9418  158.3558 F       1  UNL1       -0.2042
     33 C         143.2479  130.7867  156.8784 C.ar    1  UNL1        0.0301
     34 C         142.4961  131.9162  156.2390 C.ar    1  UNL1        0.0088
@<TRIPOS>BOND
     1    17    18    1
     2    18    11    1
     3    11    12   ar
     4    12    13   ar
     5    13     1    1
     6     1     2    1
     7     2     3    1
     8     3     4   ar
     9     4     5   ar
    10     5     6   ar
    11     6    27    1
    12    27    28    1
    13    28    29   ar
    14    29    30   ar
    15    30    31   ar
    16    31    32    1
    17    31    33   ar
    18    33    34   ar
    19     6     7   ar
    20     7     8   ar
    21     8     9    1
    22     9    10    2
    23    13    14   ar
    24    14    15   ar
    25    15    16   ar
    26    16    19    1
    27    19    20    1
    28    20    21    1
    29    21    22    1
    30    22    23    1
    31    23    24    1
    32    24    25    1
    33    25    26    1
    34    16    11   ar
    35    26    22    1
    36     9     1   am
    37     8     3   ar
    38    34    28   ar
@<TRIPOS>MOLECULE
*****
 34 38 0 0 0
SMALL
GASTEIGER

@<TRIPOS>ATOM
      1 N         140.0668  139.6934  158.9445 N.am    1  UNL1       -0.2495
      2 C         139.3679  139.0293  157.7954 C.3     1  UNL1        0.1267
      3 C         140.2981  138.0049  157.2165 C.ar    1  UNL1        0.0202
      4 C         140.1497  137.0479  156.0710 C.ar    1  UNL1        0.0011
      5 C         141.2752  136.1218  155.7168 C.ar    1  UNL1        0.0255
      6 C         142.5491  136.1527  156.5082 C.ar    1  UNL1        0.1108
      7 N         142.6975  137.1096  157.6536 N.ar    1  UNL1       -0.2345
      8 C         141.5720  138.0357  158.0078 C.ar    1  UNL1        0.1332
      9 C         141.4290  139.0793  159.0758 C.2     1  UNL1        0.2705
     10 O         142.4663  139.4446  160.0959 O.2     1  UNL1       -0.2679
     11 C         139.3411  143.2944  160.4466 C.ar    1  UNL1        0.1736
     12 C         139.9053  142.2071  159.5807 C.ar    1  UNL1        0.0549
     13 C         139.5027  140.7806  159.8104 C.ar    1  UNL1        0.0577
     14 C         138.5359  140.4412  160.9058 C.ar    1  UNL1        0.0182
     15 C         137.9717  141.5285  161.7717 C.ar    1  UNL1        0.0413
     16 C         138.3743  142.9550  161.5420 C.ar    1  UNL1        0.1724
     17 C         141.1960  145.0847  160.1236 C.3     1  UNL1        0.2526
     18 O         139.7437  144.7210  160.2169 O.3     1  UNL1       -0.4683
     19 O         137.8101  144.0422  162.4079 O.3     1  UNL1       -0.4709
     20 C         138.6131  144.5801  163.5550 C.3     1  UNL1        0.2228
     21 C         139.7039  143.7485  164.1621 C.3     1  UNL1        0.1200
     22 N         141.1323  143.9816  163.7678 N.3     1  UNL1       -0.2696
     23 C         141.8562  145.2946  163.8120 C.3     1  UNL1        0.0722
     24 C         143.2588  145.0670  163.3316 C.3     1  UNL1        0.0188
     25 C         143.4019  143.6133  162.9905 C.3     1  UNL1        0.0188
     26 C         142.0876  142.9425  163.2601 C.3     1  UNL1        0.0722
     27 S         143.6747  135.2265  156.1539 S.3     1  UNL1       -0.0680
     28 C         143.5618  133.7607  156.4516 C.ar    1  UNL1        0.0310
     29 C         144.5045  133.1184  157.4257 C.ar    1  UNL1        0.0088
     30 C         144.3915  131.6525  157.7233 C.ar    1  UNL1        0.0301
     31 C         143.3359  130.8290  157.0470 C.ar    1  UNL1        0.1402
     32 F         143.2230  129.3633  157.3447 F       1  UNL1       -0.2042
     33 C         142.3932  131.4714  156.0729 C.ar    1  UNL1        0.0301
     34 C         142.5061  132.9371  155.7752 C.ar    1  UNL1        0.0088
@<TRIPOS>BOND
     1    17    18    1
     2    18    11    1
     3    11    12   ar
     4    12    13   ar
     5    13     1    1
     6     1     2    1
     7     2     3    1
     8     3     4   ar
     9     4     5   ar
    10     5     6   ar
    11     6    27    1
    12    27    28    1
    13    28    29   ar
    14    29    30   ar
    15    30    31   ar
    16    31    32    1
    17    31    33   ar
    18    33    34   ar
    19     6     7   ar
    20     7     8   ar
    21     8     9    1
    22     9    10    2
    23    13    14   ar
    24    14    15   ar
    25    15    16   ar
    26    16    19    1
    27    19    20    1
    28    20    21    1
    29    21    22    1
    30    22    23    1
    31    23    24    1
    32    24    25    1
    33    25    26    1
    34    16    11   ar
    35    26    22    1
    36     9     1   am
    37     8     3   ar
    38    34    28   ar
@<TRIPOS>MOLECULE
*****
 34 38 0 0 0
SMALL
GASTEIGER

@<TRIPOS>ATOM
      1 N         141.7161  139.4851  160.4864 N.am    1  UNL1       -0.2495
      2 C         140.5336  139.3360  159.5757 C.3     1  UNL1        0.1267
      3 C         140.9204  138.4090  158.4617 C.ar    1  UNL1        0.0202
      4 C         140.1618  137.8961  157.2737 C.ar    1  UNL1        0.0011
      5 C         140.8248  136.9592  156.3079 C.ar    1  UNL1        0.0255
      6 C         142.2464  136.5354  156.5302 C.ar    1  UNL1        0.1108
      7 N         143.0050  137.0483  157.7182 N.ar    1  UNL1       -0.2345
      8 C         142.3420  137.9851  158.6839 C.ar    1  UNL1        0.1332
      9 C         142.8338  138.6502  159.9353 C.2     1  UNL1        0.2705
     10 O         144.2029  138.5057  160.5309 O.2     1  UNL1       -0.2679
     11 C         142.1207  142.6268  162.8772 C.ar    1  UNL1        0.1736
     12 C         142.0655  141.7898  161.6337 C.ar    1  UNL1        0.0549
     13 C         141.7713  140.3221  161.7300 C.ar    1  UNL1        0.0577
     14 C         141.5324  139.6915  163.0698 C.ar    1  UNL1        0.0182
     15 C         141.5876  140.5285  164.3133 C.ar    1  UNL1        0.0413
     16 C         141.8817  141.9962  164.2170 C.ar    1  UNL1        0.1724
     17 C         143.8159  144.5932  162.9767 C.3     1  UNL1        0.2526
     18 O         142.4148  144.0946  162.7809 O.3     1  UNL1       -0.4683
     19 O         141.9369  142.8332  165.4605 O.3     1  UNL1       -0.4709
     20 C         140.7089  143.0041  166.3047 C.3     1  UNL1        0.2228
     21 C         139.5284  143.7577  165.7676 C.3     1  UNL1        0.1200
     22 N         138.7887  143.2385  164.5704 N.3     1  UNL1       -0.2696
     23 C         138.0518  141.9347  164.4864 C.3     1  UNL1        0.0722
     24 C         137.4637  141.8224  163.1111 C.3     1  UNL1        0.0188
     25 C         137.8370  143.0569  162.3450 C.3     1  UNL1        0.0188
     26 C         138.6560  143.9321  163.2470 C.3     1  UNL1        0.0722
     27 S         142.9094  135.5985  155.5643 S.3     1  UNL1       -0.0680
     28 C         142.8722  134.1191  155.8090 C.ar    1  UNL1        0.0310
     29 C         143.8961  133.4803  156.6998 C.ar    1  UNL1        0.0088
     30 C         143.8589  132.0008  156.9445 C.ar    1  UNL1        0.0301
     31 C         142.7978  131.1602  156.2983 C.ar    1  UNL1        0.1402
     32 F         142.7606  129.6808  156.5430 F       1  UNL1       -0.2042
     33 C         141.7740  131.7990  155.4075 C.ar    1  UNL1        0.0301
     34 C         141.8111  133.2784  155.1628 C.ar    1  UNL1        0.0088
@<TRIPOS>BOND
     1    17    18    1
     2    18    11    1
     3    11    12   ar
     4    12    13   ar
     5    13     1    1
     6     1     2    1
     7     2     3    1
     8     3     4   ar
     9     4     5   ar
    10     5     6   ar
    11     6    27    1
    12    27    28    1
    13    28    29   ar
    14    29    30   ar
    15    30    31   ar
    16    31    32    1
    17    31    33   ar
    18    33    34   ar
    19     6     7   ar
    20     7     8   ar
    21     8     9    1
    22     9    10    2
    23    13    14   ar
    24    14    15   ar
    25    15    16   ar
    26    16    19    1
    27    19    20    1
    28    20    21    1
    29    21    22    1
    30    22    23    1
    31    23    24    1
    32    24    25    1
    33    25    26    1
    34    16    11   ar
    35    26    22    1
    36     9     1   am
    37     8     3   ar
    38    34    28   ar
