@<TRIPOS>MOLECULE
*****
 29 33 0 0 0
SMALL
GASTEIGER

@<TRIPOS>ATOM
      1 C         142.5886  138.9314  160.1832 C.ar    1  UNL1        0.0537
      2 C         142.0664  140.1349  159.4560 C.ar    1  UNL1        0.0060
      3 C         141.8073  140.0654  157.9802 C.ar    1  UNL1        0.0173
      4 C         142.0703  138.7924  157.2317 C.ar    1  UNL1        0.0594
      5 C         142.5925  137.5889  157.9589 C.ar    1  UNL1        0.0144
      6 C         142.8516  137.6584  159.4347 C.ar    1  UNL1        0.0057
      7 C         142.7560  136.4799  156.9622 C.ar    1  UNL1        0.0070
      8 C         142.3348  136.9980  155.6190 C.ar    1  UNL1        0.0358
      9 N         141.9110  138.4272  155.7855 N.ar    1  UNL1       -0.3289
     10 C         141.4151  139.3324  154.6970 C.3     1  UNL1        0.1301
     11 C         142.3916  136.1014  154.4178 C.3     1  UNL1        0.0608
     12 C         142.8696  134.6867  154.5598 C.3     1  UNL1        0.0786
     13 N         143.2908  134.1686  155.9030 N.3     1  UNL1       -0.2697
     14 C         143.2340  135.0653  157.1042 C.3     1  UNL1        0.1003
     15 C         138.5651  137.3814  165.5366 C.3     1  UNL1        0.0001
     16 C         139.6357  137.7863  164.5673 C.3     1  UNL1        0.0034
     17 C         139.3765  137.7168  163.0915 C.3     1  UNL1        0.0216
     18 C         140.4472  138.1217  162.1220 C.3     1  UNL1        0.0937
     19 N         141.7771  138.5960  162.6284 N.am    1  UNL1       -0.2761
     20 C         142.8478  139.0008  161.6591 C.2     1  UNL1        0.2490
     21 O         144.1777  139.4751  162.1655 O.2     1  UNL1       -0.2699
     22 C         142.0363  138.6654  164.1043 C.3     1  UNL1        0.0937
     23 C         140.9656  138.2606  165.0737 C.3     1  UNL1        0.0216
     24 C         143.7688  132.7539  156.0451 C.3     1  UNL1        0.0628
     25 C         144.3257  132.2783  157.3541 C.3     1  UNL1        0.0481
     26 C         144.8037  130.8636  157.4961 C.3     1  UNL1        0.1435
     27 O         144.7247  129.9246  156.3292 O.3     1  UNL1       -0.3537
     28 C         144.1677  130.4001  155.0202 C.3     1  UNL1        0.1435
     29 C         143.6897  131.8148  154.8781 C.3     1  UNL1        0.0481
@<TRIPOS>BOND
     1    15    16    1
     2    16    17    1
     3    17    18    1
     4    18    19    1
     5    19    20   am
     6    20    21    2
     7    20     1    1
     8     1     2   ar
     9     2     3   ar
    10     3     4   ar
    11     4     5   ar
    12     5     6   ar
    13     5     7   ar
    14     7     8   ar
    15     8     9   ar
    16     9    10    1
    17     8    11    1
    18    11    12    1
    19    12    13    1
    20    13    24    1
    21    24    25    1
    22    25    26    1
    23    26    27    1
    24    27    28    1
    25    28    29    1
    26    13    14    1
    27    19    22    1
    28    22    23    1
    29    23    16    1
    30     6     1   ar
    31    14     7    1
    32     9     4   ar
    33    29    24    1
@<TRIPOS>MOLECULE
*****
 29 33 0 0 0
SMALL
GASTEIGER

@<TRIPOS>ATOM
      1 C         142.1336  137.5467  156.6928 C.ar    1  UNL1        0.0537
      2 C         143.1351  138.4453  156.0300 C.ar    1  UNL1        0.0060
      3 C         143.6519  139.6539  156.7525 C.ar    1  UNL1        0.0173
      4 C         143.1672  139.9640  158.1377 C.ar    1  UNL1        0.0594
      5 C         142.1656  139.0654  158.8005 C.ar    1  UNL1        0.0144
      6 C         141.6488  137.8567  158.0780 C.ar    1  UNL1        0.0057
      7 C         141.8738  139.6216  160.1626 C.ar    1  UNL1        0.0070
      8 C         142.6950  140.8640  160.3417 C.ar    1  UNL1        0.0358
      9 N         143.4944  141.0756  159.0903 N.ar    1  UNL1       -0.3289
     10 C         144.4527  142.2012  158.8359 C.3     1  UNL1        0.1301
     11 C         142.6087  141.6421  161.6212 C.3     1  UNL1        0.0608
     12 C         141.7013  141.1778  162.7217 C.3     1  UNL1        0.0786
     13 N         140.8800  139.9354  162.5426 N.3     1  UNL1       -0.2697
     14 C         140.9663  139.1573  161.2630 C.3     1  UNL1        0.1003
     15 C         143.9203  130.9248  157.1495 C.3     1  UNL1        0.0001
     16 C         143.3444  132.2781  156.8547 C.3     1  UNL1        0.0034
     17 C         143.8613  133.4867  157.5772 C.3     1  UNL1        0.0216
     18 C         143.2854  134.8401  157.2824 C.3     1  UNL1        0.0937
     19 N         142.1926  134.9847  156.2651 N.am    1  UNL1       -0.2761
     20 C         141.6167  136.3380  155.9703 C.2     1  UNL1        0.2490
     21 O         140.5239  136.4826  154.9530 O.2     1  UNL1       -0.2699
     22 C         141.6757  133.7760  155.5426 C.3     1  UNL1        0.0937
     23 C         142.2516  132.4227  155.8374 C.3     1  UNL1        0.0216
     24 C         139.9726  139.4710  163.6430 C.3     1  UNL1        0.0628
     25 C         139.1626  140.4677  164.4179 C.3     1  UNL1        0.0481
     26 C         138.2552  140.0034  165.5183 C.3     1  UNL1        0.1435
     27 O         138.1577  138.5425  165.8438 O.3     1  UNL1       -0.3537
     28 C         138.9676  137.5458  165.0688 C.3     1  UNL1        0.1435
     29 C         139.8751  138.0100  163.9685 C.3     1  UNL1        0.0481
@<TRIPOS>BOND
     1    15    16    1
     2    16    17    1
     3    17    18    1
     4    18    19    1
     5    19    20   am
     6    20    21    2
     7    20     1    1
     8     1     2   ar
     9     2     3   ar
    10     3     4   ar
    11     4     5   ar
    12     5     6   ar
    13     5     7   ar
    14     7     8   ar
    15     8     9   ar
    16     9    10    1
    17     8    11    1
    18    11    12    1
    19    12    13    1
    20    13    24    1
    21    24    25    1
    22    25    26    1
    23    26    27    1
    24    27    28    1
    25    28    29    1
    26    13    14    1
    27    19    22    1
    28    22    23    1
    29    23    16    1
    30     6     1   ar
    31    14     7    1
    32     9     4   ar
    33    29    24    1
@<TRIPOS>MOLECULE
*****
 29 33 0 0 0
SMALL
GASTEIGER

@<TRIPOS>ATOM
      1 C         142.0236  142.1732  158.5028 C.ar    1  UNL1        0.0537
      2 C         141.3854  143.4765  158.1235 C.ar    1  UNL1        0.0060
      3 C         140.8632  144.3940  159.1891 C.ar    1  UNL1        0.0173
      4 C         140.9793  144.0082  160.6340 C.ar    1  UNL1        0.0594
      5 C         141.6175  142.7048  161.0133 C.ar    1  UNL1        0.0144
      6 C         142.1396  141.7873  159.9477 C.ar    1  UNL1        0.0057
      7 C         141.5916  142.5940  162.5089 C.ar    1  UNL1        0.0070
      8 C         140.9375  143.8289  163.0540 C.ar    1  UNL1        0.0358
      9 N         140.5590  144.7029  161.8952 N.ar    1  UNL1       -0.3289
     10 C         139.8795  146.0374  161.9824 C.3     1  UNL1        0.1301
     11 C         140.7710  143.9979  164.5351 C.3     1  UNL1        0.0608
     12 C         141.2586  142.9321  165.4712 C.3     1  UNL1        0.0786
     13 N         141.9128  141.6972  164.9261 N.3     1  UNL1       -0.2697
     14 C         142.0793  141.5281  163.4449 C.3     1  UNL1        0.1003
     15 C         148.2206  141.7649  155.5565 C.3     1  UNL1        0.0001
     16 C         146.8020  141.6376  156.0267 C.3     1  UNL1        0.0034
     17 C         146.2798  142.5551  157.0922 C.3     1  UNL1        0.0216
     18 C         144.8610  142.4278  157.5625 C.3     1  UNL1        0.0937
     19 N         143.9645  141.3829  156.9671 N.am    1  UNL1       -0.2761
     20 C         142.5459  141.2556  157.4372 C.2     1  UNL1        0.2490
     21 O         141.6493  140.2107  156.8419 O.2     1  UNL1       -0.2699
     22 C         144.4868  140.4653  155.9015 C.3     1  UNL1        0.0937
     23 C         145.9054  140.5927  155.4313 C.3     1  UNL1        0.0216
     24 C         142.4005  140.6313  165.8621 C.3     1  UNL1        0.0628
     25 C         143.1175  139.4296  165.3220 C.3     1  UNL1        0.0481
     26 C         143.6051  138.3637  166.2580 C.3     1  UNL1        0.1435
     27 O         143.3759  138.4996  167.7340 O.3     1  UNL1       -0.3537
     28 C         142.6589  139.7013  168.2742 C.3     1  UNL1        0.1435
     29 C         142.1712  140.7672  167.3383 C.3     1  UNL1        0.0481
@<TRIPOS>BOND
     1    15    16    1
     2    16    17    1
     3    17    18    1
     4    18    19    1
     5    19    20   am
     6    20    21    2
     7    20     1    1
     8     1     2   ar
     9     2     3   ar
    10     3     4   ar
    11     4     5   ar
    12     5     6   ar
    13     5     7   ar
    14     7     8   ar
    15     8     9   ar
    16     9    10    1
    17     8    11    1
    18    11    12    1
    19    12    13    1
    20    13    24    1
    21    24    25    1
    22    25    26    1
    23    26    27    1
    24    27    28    1
    25    28    29    1
    26    13    14    1
    27    19    22    1
    28    22    23    1
    29    23    16    1
    30     6     1   ar
    31    14     7    1
    32     9     4   ar
    33    29    24    1
@<TRIPOS>MOLECULE
*****
 29 33 0 0 0
SMALL
GASTEIGER

@<TRIPOS>ATOM
      1 C         139.7368  143.2958  160.5857 C.ar    1  UNL1        0.0537
      2 C         139.0516  142.1882  159.8417 C.ar    1  UNL1        0.0060
      3 C         138.7363  140.8986  160.5399 C.ar    1  UNL1        0.0173
      4 C         139.1061  140.7167  161.9822 C.ar    1  UNL1        0.0594
      5 C         139.7913  141.8243  162.7262 C.ar    1  UNL1        0.0144
      6 C         140.1067  143.1138  162.0280 C.ar    1  UNL1        0.0057
      7 C         140.0330  141.3585  164.1314 C.ar    1  UNL1        0.0070
      8 C         139.4971  139.9630  164.2559 C.ar    1  UNL1        0.0358
      9 N         138.9243  139.5663  162.9276 N.ar    1  UNL1       -0.3289
     10 C         138.2824  138.2503  162.6018 C.3     1  UNL1        0.1301
     11 C         139.6000  139.2339  165.5627 C.3     1  UNL1        0.0608
     12 C         140.2388  139.9003  166.7451 C.3     1  UNL1        0.0786
     13 N         140.7747  141.2958  166.6207 N.3     1  UNL1       -0.2697
     14 C         140.6717  142.0249  165.3138 C.3     1  UNL1        0.1003
     15 C         143.1069  144.5322  154.7237 C.3     1  UNL1        0.0001
     16 C         142.3432  144.5455  156.0146 C.3     1  UNL1        0.0034
     17 C         142.0279  143.2559  156.7128 C.3     1  UNL1        0.0216
     18 C         141.2642  143.2692  158.0038 C.3     1  UNL1        0.0937
     19 N         140.8159  144.5721  158.5966 N.am    1  UNL1       -0.2761
     20 C         140.0522  144.5854  159.8875 C.2     1  UNL1        0.2490
     21 O         139.6038  145.8883  160.4803 O.2     1  UNL1       -0.2699
     22 C         141.1312  145.8618  157.8984 C.3     1  UNL1        0.0937
     23 C         141.8949  145.8484  156.6074 C.3     1  UNL1        0.0216
     24 C         141.4134  141.9621  167.8030 C.3     1  UNL1        0.0628
     25 C         140.5907  142.8265  168.7118 C.3     1  UNL1        0.0481
     26 C         141.2294  143.4928  169.8941 C.3     1  UNL1        0.1435
     27 O         142.6908  143.2949  170.1677 O.3     1  UNL1       -0.3537
     28 C         143.5136  142.4305  169.2588 C.3     1  UNL1        0.1435
     29 C         142.8749  141.7641  168.0765 C.3     1  UNL1        0.0481
@<TRIPOS>BOND
     1    15    16    1
     2    16    17    1
     3    17    18    1
     4    18    19    1
     5    19    20   am
     6    20    21    2
     7    20     1    1
     8     1     2   ar
     9     2     3   ar
    10     3     4   ar
    11     4     5   ar
    12     5     6   ar
    13     5     7   ar
    14     7     8   ar
    15     8     9   ar
    16     9    10    1
    17     8    11    1
    18    11    12    1
    19    12    13    1
    20    13    24    1
    21    24    25    1
    22    25    26    1
    23    26    27    1
    24    27    28    1
    25    28    29    1
    26    13    14    1
    27    19    22    1
    28    22    23    1
    29    23    16    1
    30     6     1   ar
    31    14     7    1
    32     9     4   ar
    33    29    24    1
@<TRIPOS>MOLECULE
*****
 29 33 0 0 0
SMALL
GASTEIGER

@<TRIPOS>ATOM
      1 C         141.6883  139.5209  161.4963 C.ar    1  UNL1        0.0537
      2 C         142.8161  138.5366  161.4004 C.ar    1  UNL1        0.0060
      3 C         143.0172  137.7468  160.1412 C.ar    1  UNL1        0.0173
      4 C         142.0904  137.9412  158.9779 C.ar    1  UNL1        0.0594
      5 C         140.9626  138.9254  159.0738 C.ar    1  UNL1        0.0144
      6 C         140.7615  139.7153  160.3330 C.ar    1  UNL1        0.0057
      7 C         140.2156  138.9025  157.7732 C.ar    1  UNL1        0.0070
      8 C         140.8817  137.9042  156.8735 C.ar    1  UNL1        0.0358
      9 N         142.0404  137.3100  157.6180 N.ar    1  UNL1       -0.3289
     10 C         142.9836  136.2676  157.0946 C.3     1  UNL1        0.1301
     11 C         140.3472  137.6651  155.4926 C.3     1  UNL1        0.0608
     12 C         139.1464  138.4245  155.0113 C.3     1  UNL1        0.0786
     13 N         138.4802  139.4228  155.9110 N.3     1  UNL1       -0.2697
     14 C         139.0148  139.6619  157.2920 C.3     1  UNL1        0.1003
     15 C         137.6652  138.3541  166.9464 C.3     1  UNL1        0.0001
     16 C         138.6207  138.8433  165.8987 C.3     1  UNL1        0.0034
     17 C         138.8217  138.0534  164.6396 C.3     1  UNL1        0.0216
     18 C         139.7773  138.5425  163.5918 C.3     1  UNL1        0.0937
     19 N         140.5317  139.8216  163.8033 N.am    1  UNL1       -0.2761
     20 C         141.4872  140.3108  162.7556 C.2     1  UNL1        0.2490
     21 O         142.2416  141.5899  162.9671 O.2     1  UNL1       -0.2699
     22 C         140.3306  140.6115  165.0625 C.3     1  UNL1        0.0937
     23 C         139.3751  140.1224  166.1102 C.3     1  UNL1        0.0216
     24 C         137.2794  140.1822  155.4298 C.3     1  UNL1        0.0628
     25 C         136.1999  139.4732  154.6669 C.3     1  UNL1        0.0481
     26 C         134.9992  140.2325  154.1857 C.3     1  UNL1        0.1435
     27 O         134.8780  141.7008  154.4673 O.3     1  UNL1       -0.3537
     28 C         135.9575  142.4098  155.2301 C.3     1  UNL1        0.1435
     29 C         137.1582  141.6505  155.7114 C.3     1  UNL1        0.0481
@<TRIPOS>BOND
     1    15    16    1
     2    16    17    1
     3    17    18    1
     4    18    19    1
     5    19    20   am
     6    20    21    2
     7    20     1    1
     8     1     2   ar
     9     2     3   ar
    10     3     4   ar
    11     4     5   ar
    12     5     6   ar
    13     5     7   ar
    14     7     8   ar
    15     8     9   ar
    16     9    10    1
    17     8    11    1
    18    11    12    1
    19    12    13    1
    20    13    24    1
    21    24    25    1
    22    25    26    1
    23    26    27    1
    24    27    28    1
    25    28    29    1
    26    13    14    1
    27    19    22    1
    28    22    23    1
    29    23    16    1
    30     6     1   ar
    31    14     7    1
    32     9     4   ar
    33    29    24    1
@<TRIPOS>MOLECULE
*****
 29 33 0 0 0
SMALL
GASTEIGER

@<TRIPOS>ATOM
      1 C         140.7859  140.3137  159.0758 C.ar    1  UNL1        0.0537
      2 C         141.8973  141.1804  158.5623 C.ar    1  UNL1        0.0060
      3 C         142.7224  141.9877  159.5200 C.ar    1  UNL1        0.0173
      4 C         142.4362  141.9284  160.9912 C.ar    1  UNL1        0.0594
      5 C         141.3249  141.0617  161.5047 C.ar    1  UNL1        0.0144
      6 C         140.4997  140.2543  160.5470 C.ar    1  UNL1        0.0057
      7 C         141.2774  141.2046  162.9972 C.ar    1  UNL1        0.0070
      8 C         142.3594  142.1596  163.4060 C.ar    1  UNL1        0.0358
      9 N         143.0756  142.6070  162.1663 N.ar    1  UNL1       -0.3289
     10 C         144.2287  143.5647  162.1113 C.3     1  UNL1        0.1301
     11 C         142.5527  142.4985  164.8544 C.3     1  UNL1        0.0608
     12 C         141.6639  141.8824  165.8940 C.3     1  UNL1        0.0786
     13 N         140.5819  140.9273  165.4851 N.3     1  UNL1       -0.2697
     14 C         140.3887  140.5884  164.0366 C.3     1  UNL1        0.1003
     15 C         142.3993  134.8258  155.2639 C.3     1  UNL1        0.0001
     16 C         141.7897  135.9959  155.9774 C.3     1  UNL1        0.0034
     17 C         142.6149  136.8033  156.9351 C.3     1  UNL1        0.0216
     18 C         142.0052  137.9734  157.6487 C.3     1  UNL1        0.0937
     19 N         140.5704  138.3362  157.4045 N.am    1  UNL1       -0.2761
     20 C         139.9607  139.5063  158.1180 C.2     1  UNL1        0.2490
     21 O         138.5259  139.8691  157.8738 O.2     1  UNL1       -0.2699
     22 C         139.7452  137.5288  156.4467 C.3     1  UNL1        0.0937
     23 C         140.3548  136.3587  155.7332 C.3     1  UNL1        0.0216
     24 C         139.6932  140.3112  166.5246 C.3     1  UNL1        0.0628
     25 C         138.6135  139.3534  166.1160 C.3     1  UNL1        0.0481
     26 C         137.7248  138.7373  167.1554 C.3     1  UNL1        0.1435
     27 O         137.9157  139.0789  168.6034 O.3     1  UNL1       -0.3537
     28 C         138.9954  140.0366  169.0120 C.3     1  UNL1        0.1435
     29 C         139.8841  140.6528  167.9726 C.3     1  UNL1        0.0481
@<TRIPOS>BOND
     1    15    16    1
     2    16    17    1
     3    17    18    1
     4    18    19    1
     5    19    20   am
     6    20    21    2
     7    20     1    1
     8     1     2   ar
     9     2     3   ar
    10     3     4   ar
    11     4     5   ar
    12     5     6   ar
    13     5     7   ar
    14     7     8   ar
    15     8     9   ar
    16     9    10    1
    17     8    11    1
    18    11    12    1
    19    12    13    1
    20    13    24    1
    21    24    25    1
    22    25    26    1
    23    26    27    1
    24    27    28    1
    25    28    29    1
    26    13    14    1
    27    19    22    1
    28    22    23    1
    29    23    16    1
    30     6     1   ar
    31    14     7    1
    32     9     4   ar
    33    29    24    1
@<TRIPOS>MOLECULE
*****
 29 33 0 0 0
SMALL
GASTEIGER

@<TRIPOS>ATOM
      1 C         142.7131  139.4165  159.6190 C.ar    1  UNL1        0.0537
      2 C         143.6557  140.4865  159.1535 C.ar    1  UNL1        0.0060
      3 C         143.9646  141.6531  160.0442 C.ar    1  UNL1        0.0173
      4 C         143.3311  141.7498  161.4004 C.ar    1  UNL1        0.0594
      5 C         142.3885  140.6798  161.8659 C.ar    1  UNL1        0.0144
      6 C         142.0796  139.5132  160.9752 C.ar    1  UNL1        0.0057
      7 C         141.9191  141.0429  163.2435 C.ar    1  UNL1        0.0070
      8 C         142.5715  142.3373  163.6294 C.ar    1  UNL1        0.0358
      9 N         143.4442  142.7742  162.4903 N.ar    1  UNL1       -0.3289
     10 C         144.2827  144.0173  162.4485 C.3     1  UNL1        0.1301
     11 C         142.2866  142.9509  164.9682 C.3     1  UNL1        0.0608
     12 C         141.3493  142.2701  165.9211 C.3     1  UNL1        0.0786
     13 N         140.6969  140.9757  165.5352 N.3     1  UNL1       -0.2697
     14 C         140.9818  140.3621  164.1963 C.3     1  UNL1        0.1003
     15 C         138.0073  138.6583  154.6662 C.3     1  UNL1        0.0001
     16 C         139.1065  138.5562  155.6817 C.3     1  UNL1        0.0034
     17 C         139.4154  139.7229  156.5723 C.3     1  UNL1        0.0216
     18 C         140.5147  139.6208  157.5879 C.3     1  UNL1        0.0937
     19 N         141.3049  138.3519  157.7128 N.am    1  UNL1       -0.2761
     20 C         142.4041  138.2498  158.7283 C.2     1  UNL1        0.2490
     21 O         143.1943  136.9809  158.8532 O.2     1  UNL1       -0.2699
     22 C         140.9959  137.1852  156.8221 C.3     1  UNL1        0.0937
     23 C         139.8967  137.2873  155.8066 C.3     1  UNL1        0.0216
     24 C         139.7596  140.2948  166.4881 C.3     1  UNL1        0.0628
     25 C         139.8670  140.5563  167.9612 C.3     1  UNL1        0.0481
     26 C         138.9297  139.8755  168.9140 C.3     1  UNL1        0.1435
     27 O         137.8851  138.9332  168.3938 O.3     1  UNL1       -0.3537
     28 C         137.7777  138.6717  166.9207 C.3     1  UNL1        0.1435
     29 C         138.7149  139.3525  165.9678 C.3     1  UNL1        0.0481
@<TRIPOS>BOND
     1    15    16    1
     2    16    17    1
     3    17    18    1
     4    18    19    1
     5    19    20   am
     6    20    21    2
     7    20     1    1
     8     1     2   ar
     9     2     3   ar
    10     3     4   ar
    11     4     5   ar
    12     5     6   ar
    13     5     7   ar
    14     7     8   ar
    15     8     9   ar
    16     9    10    1
    17     8    11    1
    18    11    12    1
    19    12    13    1
    20    13    24    1
    21    24    25    1
    22    25    26    1
    23    26    27    1
    24    27    28    1
    25    28    29    1
    26    13    14    1
    27    19    22    1
    28    22    23    1
    29    23    16    1
    30     6     1   ar
    31    14     7    1
    32     9     4   ar
    33    29    24    1
@<TRIPOS>MOLECULE
*****
 29 33 0 0 0
SMALL
GASTEIGER

@<TRIPOS>ATOM
      1 C         136.6047  140.7805  155.8470 C.ar    1  UNL1        0.0537
      2 C         137.3941  139.7633  155.0775 C.ar    1  UNL1        0.0060
      3 C         138.6923  139.2499  155.6262 C.ar    1  UNL1        0.0173
      4 C         139.2010  139.7537  156.9443 C.ar    1  UNL1        0.0594
      5 C         138.4116  140.7709  157.7137 C.ar    1  UNL1        0.0144
      6 C         137.1134  141.2842  157.1651 C.ar    1  UNL1        0.0057
      7 C         139.1598  141.0799  158.9765 C.ar    1  UNL1        0.0070
      8 C         140.4117  140.2537  158.9875 C.ar    1  UNL1        0.0358
      9 N         140.4373  139.4341  157.7316 N.ar    1  UNL1       -0.3289
     10 C         141.5105  138.4650  157.3328 C.3     1  UNL1        0.1301
     11 C         141.3667  140.3545  160.1398 C.3     1  UNL1        0.0608
     12 C         141.0698  141.2815  161.2812 C.3     1  UNL1        0.0786
     13 N         139.8179  142.1077  161.2702 N.3     1  UNL1       -0.2697
     14 C         138.8628  142.0069  160.1178 C.3     1  UNL1        0.1003
     15 C         130.1095  139.4188  157.6385 C.3     1  UNL1        0.0001
     16 C         131.4087  139.8876  157.0534 C.3     1  UNL1        0.0034
     17 C         132.7069  139.3742  157.6021 C.3     1  UNL1        0.0216
     18 C         134.0062  139.8429  157.0170 C.3     1  UNL1        0.0937
     19 N         134.0072  140.8251  155.8833 N.am    1  UNL1       -0.2761
     20 C         135.3064  141.2939  155.2983 C.2     1  UNL1        0.2490
     21 O         135.3074  142.2761  154.1646 O.2     1  UNL1       -0.2699
     22 C         132.7089  141.3386  155.3347 C.3     1  UNL1        0.0937
     23 C         131.4097  140.8698  155.9197 C.3     1  UNL1        0.0216
     24 C         139.5209  143.0347  162.4115 C.3     1  UNL1        0.0628
     25 C         140.6431  143.7257  163.1279 C.3     1  UNL1        0.0481
     26 C         140.3461  144.6526  164.2691 C.3     1  UNL1        0.1435
     27 O         138.9271  144.8886  164.6940 O.3     1  UNL1       -0.3537
     28 C         137.8049  144.1976  163.9775 C.3     1  UNL1        0.1435
     29 C         138.1018  143.2707  162.8363 C.3     1  UNL1        0.0481
@<TRIPOS>BOND
     1    15    16    1
     2    16    17    1
     3    17    18    1
     4    18    19    1
     5    19    20   am
     6    20    21    2
     7    20     1    1
     8     1     2   ar
     9     2     3   ar
    10     3     4   ar
    11     4     5   ar
    12     5     6   ar
    13     5     7   ar
    14     7     8   ar
    15     8     9   ar
    16     9    10    1
    17     8    11    1
    18    11    12    1
    19    12    13    1
    20    13    24    1
    21    24    25    1
    22    25    26    1
    23    26    27    1
    24    27    28    1
    25    28    29    1
    26    13    14    1
    27    19    22    1
    28    22    23    1
    29    23    16    1
    30     6     1   ar
    31    14     7    1
    32     9     4   ar
    33    29    24    1
@<TRIPOS>MOLECULE
*****
 29 33 0 0 0
SMALL
GASTEIGER

@<TRIPOS>ATOM
      1 C         141.5510  142.8671  163.2124 C.ar    1  UNL1        0.0537
      2 C         141.0301  144.2629  163.0388 C.ar    1  UNL1        0.0060
      3 C         140.8182  144.8185  161.6617 C.ar    1  UNL1        0.0173
      4 C         141.1271  143.9781  160.4582 C.ar    1  UNL1        0.0594
      5 C         141.6480  142.5822  160.6318 C.ar    1  UNL1        0.0144
      6 C         141.8599  142.0267  162.0089 C.ar    1  UNL1        0.0057
      7 C         141.8623  141.9945  159.2685 C.ar    1  UNL1        0.0070
      8 C         141.4738  143.0272  158.2522 C.ar    1  UNL1        0.0358
      9 N         141.0195  144.2531  158.9875 N.ar    1  UNL1       -0.3289
     10 C         140.5414  145.5299  158.3620 C.3     1  UNL1        0.1301
     11 C         141.5840  142.7177  156.7887 C.3     1  UNL1        0.0608
     12 C         142.0826  141.3756  156.3413 C.3     1  UNL1        0.0786
     13 N         142.4711  140.3429  157.3575 N.3     1  UNL1       -0.2697
     14 C         142.3609  140.6524  158.8212 C.3     1  UNL1        0.1003
     15 C         137.7252  138.5638  166.9667 C.3     1  UNL1        0.0001
     16 C         138.7346  139.5007  166.3725 C.3     1  UNL1        0.0034
     17 C         138.5226  140.0562  164.9954 C.3     1  UNL1        0.0216
     18 C         139.5321  140.9932  164.4010 C.3     1  UNL1        0.0937
     19 N         140.7535  141.3746  165.1838 N.am    1  UNL1       -0.2761
     20 C         141.7629  142.3115  164.5895 C.2     1  UNL1        0.2490
     21 O         142.9843  142.6928  165.3723 O.2     1  UNL1       -0.2699
     22 C         140.9654  140.8190  166.5610 C.3     1  UNL1        0.0937
     23 C         139.9560  139.8821  167.1553 C.3     1  UNL1        0.0216
     24 C         142.9697  139.0008  156.9102 C.3     1  UNL1        0.0628
     25 C         143.9615  138.9048  155.7890 C.3     1  UNL1        0.0481
     26 C         144.4602  137.5627  155.3417 C.3     1  UNL1        0.1435
     27 O         143.9670  136.3167  156.0155 O.3     1  UNL1       -0.3537
     28 C         142.9752  136.4127  157.1366 C.3     1  UNL1        0.1435
     29 C         142.4765  137.7547  157.5840 C.3     1  UNL1        0.0481
@<TRIPOS>BOND
     1    15    16    1
     2    16    17    1
     3    17    18    1
     4    18    19    1
     5    19    20   am
     6    20    21    2
     7    20     1    1
     8     1     2   ar
     9     2     3   ar
    10     3     4   ar
    11     4     5   ar
    12     5     6   ar
    13     5     7   ar
    14     7     8   ar
    15     8     9   ar
    16     9    10    1
    17     8    11    1
    18    11    12    1
    19    12    13    1
    20    13    24    1
    21    24    25    1
    22    25    26    1
    23    26    27    1
    24    27    28    1
    25    28    29    1
    26    13    14    1
    27    19    22    1
    28    22    23    1
    29    23    16    1
    30     6     1   ar
    31    14     7    1
    32     9     4   ar
    33    29    24    1
