@<TRIPOS>MOLECULE
*****
 23 25 0 0 0
SMALL
GASTEIGER

@<TRIPOS>ATOM
      1 C         138.9922  144.4073  163.2675 C.ar    1  UNL1        0.1384
      2 C         140.2204  144.5179  164.1214 C.ar    1  UNL1        0.0369
      3 C         140.5778  143.4108  165.0683 C.ar    1  UNL1        0.0025
      4 C         139.7069  142.1930  165.1613 C.ar    1  UNL1       -0.0076
      5 C         138.4787  142.0825  164.3073 C.ar    1  UNL1       -0.0154
      6 C         138.1213  143.1896  163.3605 C.ar    1  UNL1        0.0329
      7 C         137.8171  140.7717  164.6144 C.3     1  UNL1        0.0481
      8 C         138.6364  140.0722  165.6581 C.2     1  UNL1       -0.0420
      9 C         139.8044  140.9506  165.9961 C.2     1  UNL1       -0.0242
     10 C         139.7177  146.3166  161.6618 C.3     1  UNL1        0.2525
     11 O         138.6349  145.5144  162.3206 O.3     1  UNL1       -0.4714
     12 C         140.8809  140.6411  166.9937 C.3     1  UNL1        0.0681
     13 C         142.2124  140.1321  166.5267 C.3     1  UNL1        0.0116
     14 C         140.6260  140.8405  168.4583 C.ar    1  UNL1        0.0919
     15 N         140.4269  139.7551  169.4744 N.ar    1  UNL1       -0.2408
     16 C         140.2033  140.4039  170.8081 C.ar    1  UNL1        0.1061
     17 C         140.2642  141.8904  170.6164 C.ar    1  UNL1        0.0572
     18 S         140.5255  142.1602  169.1643 S.2     1  UNL1       -0.0699
     19 C         138.3400  138.7299  166.2585 C.3     1  UNL1        0.0394
     20 C         138.6219  137.4804  165.4779 C.3     1  UNL1        0.0765
     21 N         139.5369  137.5284  164.2903 N.3     1  UNL1       -0.2700
     22 C         141.0182  137.3853  164.4784 C.3     1  UNL1        0.0897
     23 C         138.9706  137.7195  162.9146 C.3     1  UNL1        0.0897
@<TRIPOS>BOND
     1    10    11    1
     2    11     1    1
     3     1     2   ar
     4     2     3   ar
     5     3     4   ar
     6     4     5   ar
     7     5     6   ar
     8     5     7    1
     9     7     8    1
    10     8    19    1
    11    19    20    1
    12    20    21    1
    13    21    22    1
    14    21    23    1
    15     8     9    2
    16     9    12    1
    17    12    13    1
    18    12    14    1
    19    14    15   ar
    20    15    16   ar
    21    16    17   ar
    22    17    18   ar
    23     6     1   ar
    24    18    14   ar
    25     9     4    1
@<TRIPOS>MOLECULE
*****
 23 25 0 0 0
SMALL
GASTEIGER

@<TRIPOS>ATOM
      1 C         138.6292  144.4340  163.0640 C.ar    1  UNL1        0.1384
      2 C         138.0928  143.1118  162.6014 C.ar    1  UNL1        0.0369
      3 C         138.2724  141.8901  163.4531 C.ar    1  UNL1        0.0025
      4 C         138.9882  141.9907  164.7674 C.ar    1  UNL1       -0.0076
      5 C         139.5246  143.3130  165.2299 C.ar    1  UNL1       -0.0154
      6 C         139.3451  144.5346  164.3782 C.ar    1  UNL1        0.0329
      7 C         140.1821  143.1061  166.5623 C.3     1  UNL1        0.0481
      8 C         140.0520  141.6560  166.9231 C.2     1  UNL1       -0.0420
      9 C         139.3142  140.9667  165.8138 C.2     1  UNL1       -0.0242
     10 C         139.6491  146.3739  161.6688 C.3     1  UNL1        0.2525
     11 O         138.4497  145.6556  162.2122 O.3     1  UNL1       -0.4714
     12 C         138.9638  139.5091  165.7603 C.3     1  UNL1        0.0681
     13 C         138.0213  138.9267  166.7715 C.3     1  UNL1        0.0116
     14 C         139.5558  138.6340  164.6956 C.ar    1  UNL1        0.0919
     15 N         138.9734  138.3824  163.3363 N.ar    1  UNL1       -0.2408
     16 C         139.8917  137.4498  162.6038 C.ar    1  UNL1        0.1061
     17 C         141.0419  137.1248  163.5104 C.ar    1  UNL1        0.0572
     18 S         140.8343  137.8567  164.8031 S.2     1  UNL1       -0.0699
     19 C         140.5690  141.0087  168.1737 C.3     1  UNL1        0.0394
     20 C         141.2497  141.8387  169.2214 C.3     1  UNL1        0.0765
     21 N         142.5691  141.4008  169.7847 N.3     1  UNL1       -0.2700
     22 C         143.7439  142.3330  169.7549 C.3     1  UNL1        0.0897
     23 C         142.7138  140.0307  170.3779 C.3     1  UNL1        0.0897
@<TRIPOS>BOND
     1    10    11    1
     2    11     1    1
     3     1     2   ar
     4     2     3   ar
     5     3     4   ar
     6     4     5   ar
     7     5     6   ar
     8     5     7    1
     9     7     8    1
    10     8    19    1
    11    19    20    1
    12    20    21    1
    13    21    22    1
    14    21    23    1
    15     8     9    2
    16     9    12    1
    17    12    13    1
    18    12    14    1
    19    14    15   ar
    20    15    16   ar
    21    16    17   ar
    22    17    18   ar
    23     6     1   ar
    24    18    14   ar
    25     9     4    1
@<TRIPOS>MOLECULE
*****
 23 25 0 0 0
SMALL
GASTEIGER

@<TRIPOS>ATOM
      1 C         141.0283  140.3352  168.3627 C.ar    1  UNL1        0.1384
      2 C         141.3008  141.8096  168.3206 C.ar    1  UNL1        0.0369
      3 C         140.6662  142.6596  167.2600 C.ar    1  UNL1        0.0025
      4 C         139.7591  142.0351  166.2416 C.ar    1  UNL1       -0.0076
      5 C         139.4866  140.5607  166.2838 C.ar    1  UNL1       -0.0154
      6 C         140.1212  139.7107  167.3443 C.ar    1  UNL1        0.0329
      7 C         138.5558  140.2289  165.1552 C.3     1  UNL1        0.0481
      8 C         138.2530  141.4983  164.4156 C.2     1  UNL1       -0.0420
      9 C         138.9967  142.6146  165.0871 C.2     1  UNL1       -0.0242
     10 C         142.6803  140.0795  170.3516 C.3     1  UNL1        0.2525
     11 O         141.6630  139.4852  169.4233 O.3     1  UNL1       -0.4714
     12 C         138.9808  144.0571  164.6761 C.3     1  UNL1        0.0681
     13 C         138.3098  145.0777  165.5468 C.3     1  UNL1        0.0116
     14 C         139.6359  144.4791  163.3944 C.ar    1  UNL1        0.0919
     15 N         139.0061  145.3059  162.3129 N.ar    1  UNL1       -0.2408
     16 C         140.0167  145.4863  161.2193 C.ar    1  UNL1        0.1061
     17 C         141.2712  144.7709  161.6249 C.ar    1  UNL1        0.0572
     18 S         141.0359  144.1484  162.9691 S.2     1  UNL1       -0.0699
     19 C         137.3629  141.6285  163.2153 C.3     1  UNL1        0.0394
     20 C         137.9493  141.5644  161.8362 C.3     1  UNL1        0.0765
     21 N         137.8998  140.2824  161.0590 N.3     1  UNL1       -0.2700
     22 C         137.9979  140.3083  159.5624 C.3     1  UNL1        0.0897
     23 C         137.7522  138.9745  161.7784 C.3     1  UNL1        0.0897
@<TRIPOS>BOND
     1    10    11    1
     2    11     1    1
     3     1     2   ar
     4     2     3   ar
     5     3     4   ar
     6     4     5   ar
     7     5     6   ar
     8     5     7    1
     9     7     8    1
    10     8    19    1
    11    19    20    1
    12    20    21    1
    13    21    22    1
    14    21    23    1
    15     8     9    2
    16     9    12    1
    17    12    13    1
    18    12    14    1
    19    14    15   ar
    20    15    16   ar
    21    16    17   ar
    22    17    18   ar
    23     6     1   ar
    24    18    14   ar
    25     9     4    1
@<TRIPOS>MOLECULE
*****
 23 25 0 0 0
SMALL
GASTEIGER

@<TRIPOS>ATOM
      1 C         139.9497  141.1447  169.3069 C.ar    1  UNL1        0.1384
      2 C         140.6403  142.2270  168.5314 C.ar    1  UNL1        0.0369
      3 C         140.6229  142.2029  167.0317 C.ar    1  UNL1        0.0025
      4 C         139.9148  141.0965  166.3075 C.ar    1  UNL1       -0.0076
      5 C         139.2241  140.0142  167.0831 C.ar    1  UNL1       -0.0154
      6 C         139.2416  140.0383  168.5828 C.ar    1  UNL1        0.0329
      7 C         138.6123  139.0589  166.1017 C.3     1  UNL1        0.0481
      8 C         138.9248  139.5509  164.7196 C.2     1  UNL1       -0.0420
      9 C         139.7298  140.8102  164.8468 C.2     1  UNL1       -0.0242
     10 C         141.2548  141.4075  171.5380 C.3     1  UNL1        0.2525
     11 O         139.9671  141.1688  170.8066 O.3     1  UNL1       -0.4714
     12 C         140.2572  141.6379  163.7124 C.3     1  UNL1        0.0681
     13 C         141.4758  141.1905  162.9608 C.3     1  UNL1        0.0116
     14 C         139.5662  142.9129  163.3296 C.ar    1  UNL1        0.0919
     15 N         140.2306  144.1569  162.8186 N.ar    1  UNL1       -0.2408
     16 C         139.1646  145.1807  162.5638 C.ar    1  UNL1        0.1061
     17 C         137.8410  144.5696  162.9173 C.ar    1  UNL1        0.0572
     18 S         138.0892  143.1681  163.3906 S.2     1  UNL1       -0.0699
     19 C         138.5059  138.8982  163.4356 C.3     1  UNL1        0.0394
     20 C         139.1455  137.6115  163.0048 C.3     1  UNL1        0.0765
     21 N         140.6358  137.4555  163.0720 N.3     1  UNL1       -0.2700
     22 C         141.2866  137.0104  164.3481 C.3     1  UNL1        0.0897
     23 C         141.4754  137.7445  161.8631 C.3     1  UNL1        0.0897
@<TRIPOS>BOND
     1    10    11    1
     2    11     1    1
     3     1     2   ar
     4     2     3   ar
     5     3     4   ar
     6     4     5   ar
     7     5     6   ar
     8     5     7    1
     9     7     8    1
    10     8    19    1
    11    19    20    1
    12    20    21    1
    13    21    22    1
    14    21    23    1
    15     8     9    2
    16     9    12    1
    17    12    13    1
    18    12    14    1
    19    14    15   ar
    20    15    16   ar
    21    16    17   ar
    22    17    18   ar
    23     6     1   ar
    24    18    14   ar
    25     9     4    1
@<TRIPOS>MOLECULE
*****
 23 25 0 0 0
SMALL
GASTEIGER

@<TRIPOS>ATOM
      1 C         141.6529  141.3862  169.7171 C.ar    1  UNL1        0.1384
      2 C         140.1732  141.3268  169.4791 C.ar    1  UNL1        0.0369
      3 C         139.6333  140.5814  168.2946 C.ar    1  UNL1        0.0025
      4 C         140.5733  139.8954  167.3482 C.ar    1  UNL1       -0.0076
      5 C         142.0531  139.9548  167.5862 C.ar    1  UNL1       -0.0154
      6 C         142.5929  140.7002  168.7706 C.ar    1  UNL1        0.0329
      7 C         142.7301  139.1871  166.4896 C.3     1  UNL1        0.0481
      8 C         141.6688  138.6533  165.5740 C.2     1  UNL1       -0.0420
      9 C         140.3358  139.0910  166.1046 C.2     1  UNL1       -0.0242
     10 C         143.1649  143.2561  170.7006 C.3     1  UNL1        0.2525
     11 O         142.1927  142.1317  170.9015 O.3     1  UNL1       -0.4714
     12 C         138.9998  138.7792  165.4981 C.3     1  UNL1        0.0681
     13 C         138.1954  137.6214  166.0104 C.3     1  UNL1        0.0116
     14 C         138.4681  139.6250  164.3793 C.ar    1  UNL1        0.0919
     15 N         137.9352  141.0214  164.5062 N.ar    1  UNL1       -0.2408
     16 C         137.5137  141.4826  163.1425 C.ar    1  UNL1        0.1061
     17 C         137.7861  140.3711  162.1727 C.ar    1  UNL1        0.0572
     18 S         138.3760  139.2231  162.9370 S.2     1  UNL1       -0.0699
     19 C         141.8998  137.8268  164.3436 C.3     1  UNL1        0.0394
     20 C         142.1352  138.4976  163.0228 C.3     1  UNL1        0.0765
     21 N         143.5329  138.6626  162.5040 N.3     1  UNL1       -0.2700
     22 C         144.4890  139.5823  163.2039 C.3     1  UNL1        0.0897
     23 C         143.9744  137.9079  161.2853 C.3     1  UNL1        0.0897
@<TRIPOS>BOND
     1    10    11    1
     2    11     1    1
     3     1     2   ar
     4     2     3   ar
     5     3     4   ar
     6     4     5   ar
     7     5     6   ar
     8     5     7    1
     9     7     8    1
    10     8    19    1
    11    19    20    1
    12    20    21    1
    13    21    22    1
    14    21    23    1
    15     8     9    2
    16     9    12    1
    17    12    13    1
    18    12    14    1
    19    14    15   ar
    20    15    16   ar
    21    16    17   ar
    22    17    18   ar
    23     6     1   ar
    24    18    14   ar
    25     9     4    1
@<TRIPOS>MOLECULE
*****
 23 25 0 0 0
SMALL
GASTEIGER

@<TRIPOS>ATOM
      1 C         140.7565  140.1606  168.9847 C.ar    1  UNL1        0.1384
      2 C         141.9484  140.6796  168.2364 C.ar    1  UNL1        0.0369
      3 C         141.8684  140.8933  166.7539 C.ar    1  UNL1        0.0025
      4 C         140.5966  140.5880  166.0196 C.ar    1  UNL1       -0.0076
      5 C         139.4047  140.0690  166.7680 C.ar    1  UNL1       -0.0154
      6 C         139.4846  139.8553  168.2505 C.ar    1  UNL1        0.0329
      7 C         138.2940  139.8583  165.7820 C.3     1  UNL1        0.0481
      8 C         138.7995  140.2470  164.4243 C.2     1  UNL1       -0.0420
      9 C         140.2226  140.6980  164.5712 C.2     1  UNL1       -0.0242
     10 C         141.4243  141.0097  171.3476 C.3     1  UNL1        0.2525
     11 O         140.8364  139.9470  170.4673 O.3     1  UNL1       -0.4714
     12 C         141.1150  141.1752  163.4640 C.3     1  UNL1        0.0681
     13 C         141.7602  140.1845  162.5409 C.3     1  UNL1        0.0116
     14 C         141.3622  142.6432  163.2799 C.ar    1  UNL1        0.0919
     15 N         141.1813  143.7055  164.3234 N.ar    1  UNL1       -0.2408
     16 C         141.5410  145.0255  163.7085 C.ar    1  UNL1        0.1061
     17 C         141.9442  144.7790  162.2848 C.ar    1  UNL1        0.0572
     18 S         141.8337  143.3068  162.0199 S.2     1  UNL1       -0.0699
     19 C         138.0190  140.1941  163.1444 C.3     1  UNL1        0.0394
     20 C         137.1599  141.3558  162.7413 C.3     1  UNL1        0.0765
     21 N         137.7823  142.5649  162.1084 N.3     1  UNL1       -0.2700
     22 C         138.3600  142.4749  160.7270 C.3     1  UNL1        0.0897
     23 C         137.8270  143.8640  162.8569 C.3     1  UNL1        0.0897
@<TRIPOS>BOND
     1    10    11    1
     2    11     1    1
     3     1     2   ar
     4     2     3   ar
     5     3     4   ar
     6     4     5   ar
     7     5     6   ar
     8     5     7    1
     9     7     8    1
    10     8    19    1
    11    19    20    1
    12    20    21    1
    13    21    22    1
    14    21    23    1
    15     8     9    2
    16     9    12    1
    17    12    13    1
    18    12    14    1
    19    14    15   ar
    20    15    16   ar
    21    16    17   ar
    22    17    18   ar
    23     6     1   ar
    24    18    14   ar
    25     9     4    1
@<TRIPOS>MOLECULE
*****
 23 25 0 0 0
SMALL
GASTEIGER

@<TRIPOS>ATOM
      1 C         140.7760  140.0700  169.2498 C.ar    1  UNL1        0.1384
      2 C         139.4641  140.0740  168.5225 C.ar    1  UNL1        0.0369
      3 C         139.4203  139.7751  167.0533 C.ar    1  UNL1        0.0025
      4 C         140.6882  139.4723  166.3113 C.ar    1  UNL1       -0.0076
      5 C         142.0000  139.4684  167.0386 C.ar    1  UNL1       -0.0154
      6 C         142.0439  139.7672  168.5079 C.ar    1  UNL1        0.0329
      7 C         143.0777  139.1368  166.0492 C.3     1  UNL1        0.0481
      8 C         142.4317  138.9358  164.7104 C.2     1  UNL1       -0.0420
      9 C         140.9550  139.1432  164.8724 C.2     1  UNL1       -0.0242
     10 C         141.4568  141.6358  171.2081 C.3     1  UNL1        0.2525
     11 O         140.8199  140.3689  170.7191 O.3     1  UNL1       -0.4714
     12 C         139.9257  139.0396  163.7862 C.3     1  UNL1        0.0681
     13 C         139.4954  137.6922  163.2867 C.3     1  UNL1        0.0116
     14 C         139.3267  140.2833  163.1994 C.ar    1  UNL1        0.0919
     15 N         139.8538  141.6780  163.3636 N.ar    1  UNL1       -0.2408
     16 C         138.9484  142.6074  162.6112 C.ar    1  UNL1        0.1061
     17 C         137.8615  141.7871  161.9818 C.ar    1  UNL1        0.0572
     18 S         138.0953  140.3508  162.3454 S.2     1  UNL1       -0.0699
     19 C         143.1385  138.5884  163.4336 C.3     1  UNL1        0.0394
     20 C         143.4893  139.6679  162.4530 C.3     1  UNL1        0.0765
     21 N         144.0842  140.9568  162.9374 N.3     1  UNL1       -0.2700
     22 C         143.3795  142.2543  162.6727 C.3     1  UNL1        0.0897
     23 C         145.3837  140.9483  163.6865 C.3     1  UNL1        0.0897
@<TRIPOS>BOND
     1    10    11    1
     2    11     1    1
     3     1     2   ar
     4     2     3   ar
     5     3     4   ar
     6     4     5   ar
     7     5     6   ar
     8     5     7    1
     9     7     8    1
    10     8    19    1
    11    19    20    1
    12    20    21    1
    13    21    22    1
    14    21    23    1
    15     8     9    2
    16     9    12    1
    17    12    13    1
    18    12    14    1
    19    14    15   ar
    20    15    16   ar
    21    16    17   ar
    22    17    18   ar
    23     6     1   ar
    24    18    14   ar
    25     9     4    1
@<TRIPOS>MOLECULE
*****
 23 25 0 0 0
SMALL
GASTEIGER

@<TRIPOS>ATOM
      1 C         141.5881  141.4302  168.3494 C.ar    1  UNL1        0.1384
      2 C         142.9496  141.5971  167.7423 C.ar    1  UNL1        0.0369
      3 C         143.1125  142.3696  166.4669 C.ar    1  UNL1        0.0025
      4 C         141.9139  142.9751  165.7985 C.ar    1  UNL1       -0.0076
      5 C         140.5525  142.8081  166.4055 C.ar    1  UNL1       -0.0154
      6 C         140.3896  142.0356  167.6810 C.ar    1  UNL1        0.0329
      7 C         139.5630  143.5131  165.5258 C.3     1  UNL1        0.0481
      8 C         140.3130  144.1159  164.3750 C.2     1  UNL1       -0.0420
      9 C         141.7659  143.7833  164.5436 C.2     1  UNL1       -0.0242
     10 C         142.0964  139.3260  169.7860 C.3     1  UNL1        0.2525
     11 O         141.4253  140.6577  169.6248 O.3     1  UNL1       -0.4714
     12 C         142.8760  144.1880  163.6195 C.3     1  UNL1        0.0681
     13 C         143.7838  145.3232  163.9897 C.3     1  UNL1        0.0116
     14 C         143.0783  143.4574  162.3251 C.ar    1  UNL1        0.0919
     15 N         142.8037  144.0003  160.9540 N.ar    1  UNL1       -0.2408
     16 C         143.1463  142.9343  159.9561 C.ar    1  UNL1        0.1061
     17 C         143.6327  141.7323  160.7104 C.ar    1  UNL1        0.0572
     18 S         143.5907  142.0557  162.1745 S.2     1  UNL1       -0.0699
     19 C         139.7150  144.9114  163.2527 C.3     1  UNL1        0.0394
     20 C         139.2868  144.2232  161.9905 C.3     1  UNL1        0.0765
     21 N         138.9373  142.7647  162.0131 N.3     1  UNL1       -0.2700
     22 C         139.8956  141.7551  161.4542 C.3     1  UNL1        0.0897
     23 C         137.6295  142.3158  162.5945 C.3     1  UNL1        0.0897
@<TRIPOS>BOND
     1    10    11    1
     2    11     1    1
     3     1     2   ar
     4     2     3   ar
     5     3     4   ar
     6     4     5   ar
     7     5     6   ar
     8     5     7    1
     9     7     8    1
    10     8    19    1
    11    19    20    1
    12    20    21    1
    13    21    22    1
    14    21    23    1
    15     8     9    2
    16     9    12    1
    17    12    13    1
    18    12    14    1
    19    14    15   ar
    20    15    16   ar
    21    16    17   ar
    22    17    18   ar
    23     6     1   ar
    24    18    14   ar
    25     9     4    1
@<TRIPOS>MOLECULE
*****
 23 25 0 0 0
SMALL
GASTEIGER

@<TRIPOS>ATOM
      1 C         142.5525  140.7576  169.2297 C.ar    1  UNL1        0.1384
      2 C         142.9511  142.0938  168.6769 C.ar    1  UNL1        0.0369
      3 C         143.3492  142.2209  167.2362 C.ar    1  UNL1        0.0025
      4 C         143.3487  141.0118  166.3485 C.ar    1  UNL1       -0.0076
      5 C         142.9500  139.6756  166.9014 C.ar    1  UNL1       -0.0154
      6 C         142.5519  139.5486  168.3420 C.ar    1  UNL1        0.0329
      7 C         143.0451  138.6685  165.7938 C.3     1  UNL1        0.0481
      8 C         143.5026  139.3823  164.5564 C.2     1  UNL1       -0.0420
      9 C         143.6902  140.8305  164.8992 C.2     1  UNL1       -0.0242
     10 C         140.7205  140.8132  171.0711 C.3     1  UNL1        0.2525
     11 O         142.1543  140.6306  170.6704 O.3     1  UNL1       -0.4714
     12 C         144.1402  141.9082  163.9580 C.3     1  UNL1        0.0681
     13 C         145.5925  142.0378  163.6055 C.3     1  UNL1        0.0116
     14 C         143.1382  142.8564  163.3692 C.ar    1  UNL1        0.0919
     15 N         142.0898  143.6146  164.1283 N.ar    1  UNL1       -0.2408
     16 C         141.3122  144.4397  163.1463 C.ar    1  UNL1        0.1061
     17 C         141.8799  144.1916  161.7802 C.ar    1  UNL1        0.0572
     18 S         143.0084  143.2131  161.9180 S.2     1  UNL1       -0.0699
     19 C         143.7321  138.7576  163.2121 C.3     1  UNL1        0.0394
     20 C         142.5867  138.5876  162.2586 C.3     1  UNL1        0.0765
     21 N         141.1790  138.7974  162.7324 N.3     1  UNL1       -0.2700
     22 C         140.5644  140.1645  162.6754 C.3     1  UNL1        0.0897
     23 C         140.3860  137.6400  163.2631 C.3     1  UNL1        0.0897
@<TRIPOS>BOND
     1    10    11    1
     2    11     1    1
     3     1     2   ar
     4     2     3   ar
     5     3     4   ar
     6     4     5   ar
     7     5     6   ar
     8     5     7    1
     9     7     8    1
    10     8    19    1
    11    19    20    1
    12    20    21    1
    13    21    22    1
    14    21    23    1
    15     8     9    2
    16     9    12    1
    17    12    13    1
    18    12    14    1
    19    14    15   ar
    20    15    16   ar
    21    16    17   ar
    22    17    18   ar
    23     6     1   ar
    24    18    14   ar
    25     9     4    1
