@<TRIPOS>MOLECULE
*****
 38 40 0 0 0
SMALL
GASTEIGER

@<TRIPOS>ATOM
      1 N         142.5866  143.9744  161.3066 N.am    1  UNL1       -0.2890
      2 C         141.7404  143.2572  162.3165 C.2     1  UNL1        0.3040
      3 O         140.3663  142.7850  161.9439 O.2     1  UNL1       -0.2526
      4 N         142.2685  143.0122  163.6990 N.am    1  UNL1       -0.2641
      5 C         143.6427  143.4844  164.0715 C.3     1  UNL1        0.0949
      6 C         144.1707  143.2394  165.4540 C.3     1  UNL1        0.0217
      7 C         143.3246  142.5223  166.4638 C.3     1  UNL1        0.0061
      8 C         141.9505  142.0501  166.0913 C.3     1  UNL1        0.0485
      9 C         141.4224  142.2951  164.7088 C.3     1  UNL1        0.0975
     10 H         143.4884  144.2843  161.5512 H       1  UNL1        0.1510
     11 C         141.1044  141.3330  167.1011 C.3     1  UNL1        0.1085
     12 O         140.9689  142.6022  167.8889 O.3     1  UNL1       -0.3826
     13 H         140.0326  142.7626  168.0850 H       1  UNL1        0.2107
     14 C         141.2399  140.0637  166.3133 C.ar    1  UNL1        0.0026
     15 C         142.5799  139.4027  166.1808 C.ar    1  UNL1       -0.0020
     16 C         142.7154  138.1334  165.3930 C.ar    1  UNL1        0.0006
     17 C         141.5109  137.5252  164.7377 C.ar    1  UNL1        0.0114
     18 C         140.1710  138.1863  164.8702 C.ar    1  UNL1        0.0574
     19 CL        138.9665  137.5780  164.2149 Cl      1  UNL1       -0.0823
     20 C         140.0355  139.4555  165.6580 C.ar    1  UNL1        0.0094
     21 C         140.2583  140.6157  168.1110 C.3     1  UNL1        0.0313
     22 C         140.8871  140.0492  169.3494 C.3     1  UNL1        0.0053
     23 C         140.3914  140.4691  170.7015 C.3     1  UNL1        0.0322
     24 C         140.6037  141.8768  171.1742 C.3     1  UNL1        0.1423
     25 O         141.9706  142.3284  171.5955 O.3     1  UNL1       -0.3511
     26 C         142.8771  142.9988  170.6061 C.3     1  UNL1        0.1741
     27 C         142.0585  144.2193  159.9242 C.3     1  UNL1        0.0887
     28 C         141.0956  145.3427  159.6773 C.3     1  UNL1        0.0884
     29 C         139.6888  146.2977  161.6416 C.3     1  UNL1        0.0859
     30 N         139.8060  145.4066  160.4407 N.3     1  UNL1       -0.2949
     31 H         139.0878  145.7055  159.7810 H       1  UNL1        0.1233
     32 C         142.4933  143.3410  158.7887 C.3     1  UNL1        0.0210
     33 C         142.3194  141.8540  158.8816 C.3     1  UNL1        0.0017
     34 C         143.5199  140.9659  159.0231 C.3     1  UNL1        0.0001
     35 C         143.3459  139.4789  159.1160 C.3     1  UNL1        0.0000
     36 C         141.9715  138.8801  159.0673 C.3     1  UNL1        0.0000
     37 C         140.7711  139.7682  158.9258 C.3     1  UNL1        0.0000
     38 C         140.9450  141.2551  158.8329 C.3     1  UNL1        0.0001
@<TRIPOS>BOND
     1    29    30    1
     2    30    28    1
     3    27    28    1
     4    27    32    1
     5    32    33    1
     6    33    34    1
     7    34    35    1
     8    35    36    1
     9    36    37    1
    10    37    38    1
    11    27     1    1
    12     1     2   am
    13     2     3    2
    14     2     4   am
    15     4     5    1
    16     5     6    1
    17     6     7    1
    18     8     7    1
    19     8    11    1
    20    11    12    1
    21    11    21    1
    22    21    22    1
    23    22    23    1
    24    23    24    1
    25    24    25    1
    26    25    26    1
    27    11    14    1
    28    14    15   ar
    29    15    16   ar
    30    16    17   ar
    31    17    18   ar
    32    18    19    1
    33    18    20   ar
    34     8     9    1
    35    38    33    1
    36     9     4    1
    37    20    14   ar
    38    30    31    1
    39     1    10    1
    40    12    13    1
@<TRIPOS>MOLECULE
*****
 38 40 0 0 0
SMALL
GASTEIGER

@<TRIPOS>ATOM
      1 N         140.1273  145.2272  159.6320 N.am    1  UNL1       -0.2890
      2 C         139.9512  143.8821  160.2723 C.2     1  UNL1        0.3040
      3 O         140.2530  142.6358  159.4941 O.2     1  UNL1       -0.2526
      4 N         139.4733  143.7835  161.6907 N.am    1  UNL1       -0.2641
      5 C         139.1715  145.0299  162.4688 C.3     1  UNL1        0.0949
      6 C         138.6936  144.9313  163.8872 C.3     1  UNL1        0.0217
      7 C         138.5176  143.5862  164.5275 C.3     1  UNL1        0.0061
      8 C         138.8194  142.3399  163.7494 C.3     1  UNL1        0.0485
      9 C         139.2972  142.4385  162.3310 C.3     1  UNL1        0.0975
     10 H         139.9292  146.0452  160.1427 H       1  UNL1        0.1510
     11 C         138.6433  140.9949  164.3897 C.3     1  UNL1        0.1085
     12 O         137.3801  140.7880  163.6077 O.3     1  UNL1       -0.3826
     13 H         137.4100  139.9240  163.1678 H       1  UNL1        0.2107
     14 C         139.9064  141.2018  165.1717 C.ar    1  UNL1        0.0026
     15 C         139.8394  141.4936  166.6415 C.ar    1  UNL1       -0.0020
     16 C         141.1026  141.7005  167.4235 C.ar    1  UNL1        0.0006
     17 C         142.4329  141.6156  166.7356 C.ar    1  UNL1        0.0114
     18 C         142.5000  141.3238  165.2658 C.ar    1  UNL1        0.0574
     19 CL        143.8303  141.2389  164.5780 Cl      1  UNL1       -0.0823
     20 C         141.2368  141.1169  164.4838 C.ar    1  UNL1        0.0094
     21 C         138.4672  139.6499  165.0300 C.3     1  UNL1        0.0313
     22 C         138.8096  138.4051  164.2664 C.3     1  UNL1        0.0053
     23 C         139.9190  137.5147  164.7423 C.3     1  UNL1        0.0322
     24 C         141.1138  137.2727  163.8683 C.3     1  UNL1        0.1423
     25 O         140.9437  137.1472  162.3833 O.3     1  UNL1       -0.3511
     26 C         141.3627  138.2713  161.4827 C.3     1  UNL1        0.1741
     27 C         140.6052  145.3258  158.2136 C.3     1  UNL1        0.0887
     28 C         142.0752  145.3769  157.9192 C.3     1  UNL1        0.0884
     29 C         143.2778  143.1519  157.3252 C.3     1  UNL1        0.0859
     30 N         142.9597  144.2322  158.3160 N.3     1  UNL1       -0.2949
     31 H         143.8500  144.6355  158.6079 H       1  UNL1        0.1233
     32 C         139.6131  145.3734  157.0895 C.3     1  UNL1        0.0210
     33 C         139.6193  146.5282  156.1321 C.3     1  UNL1        0.0017
     34 C         140.3542  146.4182  154.8291 C.3     1  UNL1        0.0001
     35 C         140.3603  147.5729  153.8718 C.3     1  UNL1        0.0000
     36 C         139.6316  148.8376  154.2175 C.3     1  UNL1        0.0000
     37 C         138.8967  148.9476  155.5204 C.3     1  UNL1        0.0000
     38 C         138.8906  147.7929  156.4778 C.3     1  UNL1        0.0001
@<TRIPOS>BOND
     1    29    30    1
     2    30    28    1
     3    27    28    1
     4    27    32    1
     5    32    33    1
     6    33    34    1
     7    34    35    1
     8    35    36    1
     9    36    37    1
    10    37    38    1
    11    27     1    1
    12     1     2   am
    13     2     3    2
    14     2     4   am
    15     4     5    1
    16     5     6    1
    17     6     7    1
    18     8     7    1
    19     8    11    1
    20    11    12    1
    21    11    21    1
    22    21    22    1
    23    22    23    1
    24    23    24    1
    25    24    25    1
    26    25    26    1
    27    11    14    1
    28    14    15   ar
    29    15    16   ar
    30    16    17   ar
    31    17    18   ar
    32    18    19    1
    33    18    20   ar
    34     8     9    1
    35    38    33    1
    36     9     4    1
    37    20    14   ar
    38    30    31    1
    39     1    10    1
    40    12    13    1
@<TRIPOS>MOLECULE
*****
 38 40 0 0 0
SMALL
GASTEIGER

@<TRIPOS>ATOM
      1 N         143.0041  137.2613  157.8076 N.am    1  UNL1       -0.2890
      2 C         141.7642  137.9532  158.2913 C.2     1  UNL1        0.3040
      3 O         140.5122  137.9125  157.4661 O.2     1  UNL1       -0.2526
      4 N         141.7763  138.6858  159.6001 N.am    1  UNL1       -0.2641
      5 C         143.0283  138.7265  160.4253 C.3     1  UNL1        0.0949
      6 C         143.0405  139.4591  161.7342 C.3     1  UNL1        0.0217
      7 C         141.8005  140.1511  162.2179 C.3     1  UNL1        0.0061
      8 C         140.5486  140.1104  161.3927 C.3     1  UNL1        0.0485
      9 C         140.5365  139.3777  160.0839 C.3     1  UNL1        0.0975
     10 H         143.8258  137.2880  158.3492 H       1  UNL1        0.1510
     11 C         139.3087  140.8023  161.8764 C.3     1  UNL1        0.1085
     12 O         139.4512  141.8208  160.7846 O.3     1  UNL1       -0.3826
     13 H         138.6090  141.9074  160.3112 H       1  UNL1        0.2107
     14 C         139.1663  139.7837  162.9683 C.ar    1  UNL1        0.0026
     15 C         138.9732  138.3366  162.6235 C.ar    1  UNL1       -0.0020
     16 C         138.8308  137.3180  163.7154 C.ar    1  UNL1        0.0006
     17 C         138.8813  137.7465  165.1520 C.ar    1  UNL1        0.0114
     18 C         139.0744  139.1935  165.4968 C.ar    1  UNL1        0.0574
     19 CL        139.1249  139.6219  166.9335 Cl      1  UNL1       -0.0823
     20 C         139.2168  140.2121  164.4049 C.ar    1  UNL1        0.0094
     21 C         138.0688  141.4942  162.3602 C.3     1  UNL1        0.0313
     22 C         137.8359  142.9374  162.0246 C.3     1  UNL1        0.0053
     23 C         137.9394  143.9826  163.0955 C.3     1  UNL1        0.0322
     24 C         139.0112  145.0294  163.0209 C.3     1  UNL1        0.1423
     25 O         139.1461  145.8784  161.7917 O.3     1  UNL1       -0.3511
     26 C         140.2687  145.6303  160.8282 C.3     1  UNL1        0.1741
     27 C         142.9920  136.5286  156.4987 C.3     1  UNL1        0.0887
     28 C         143.5751  137.1703  155.2746 C.3     1  UNL1        0.0884
     29 C         145.2257  139.1689  155.0999 C.3     1  UNL1        0.0859
     30 N         144.9767  137.7038  155.3030 N.3     1  UNL1       -0.2949
     31 H         145.3652  137.4627  156.2148 H       1  UNL1        0.1233
     32 C         142.3967  135.1544  156.4139 C.3     1  UNL1        0.0210
     33 C         143.2804  133.9466  156.5166 C.3     1  UNL1        0.0017
     34 C         144.0694  133.6988  157.7679 C.3     1  UNL1        0.0001
     35 C         144.9530  132.4911  157.8705 C.3     1  UNL1        0.0000
     36 C         145.0476  131.5312  156.7218 C.3     1  UNL1        0.0000
     37 C         144.2586  131.7790  155.4704 C.3     1  UNL1        0.0000
     38 C         143.3750  132.9867  155.3678 C.3     1  UNL1        0.0001
@<TRIPOS>BOND
     1    29    30    1
     2    30    28    1
     3    27    28    1
     4    27    32    1
     5    32    33    1
     6    33    34    1
     7    34    35    1
     8    35    36    1
     9    36    37    1
    10    37    38    1
    11    27     1    1
    12     1     2   am
    13     2     3    2
    14     2     4   am
    15     4     5    1
    16     5     6    1
    17     6     7    1
    18     8     7    1
    19     8    11    1
    20    11    12    1
    21    11    21    1
    22    21    22    1
    23    22    23    1
    24    23    24    1
    25    24    25    1
    26    25    26    1
    27    11    14    1
    28    14    15   ar
    29    15    16   ar
    30    16    17   ar
    31    17    18   ar
    32    18    19    1
    33    18    20   ar
    34     8     9    1
    35    38    33    1
    36     9     4    1
    37    20    14   ar
    38    30    31    1
    39     1    10    1
    40    12    13    1
@<TRIPOS>MOLECULE
*****
 38 40 0 0 0
SMALL
GASTEIGER

@<TRIPOS>ATOM
      1 N         139.7931  144.2677  160.9811 N.am    1  UNL1       -0.2890
      2 C         140.5705  143.2849  161.8057 C.2     1  UNL1        0.3040
      3 O         141.5450  142.3560  161.1443 O.2     1  UNL1       -0.2526
      4 N         140.3734  143.2311  163.2918 N.am    1  UNL1       -0.2641
      5 C         139.3989  144.1601  163.9532 C.3     1  UNL1        0.0949
      6 C         139.2017  144.1063  165.4392 C.3     1  UNL1        0.0217
      7 C         139.9792  143.1235  166.2638 C.3     1  UNL1        0.0061
      8 C         140.9536  142.1947  165.6024 C.3     1  UNL1        0.0485
      9 C         141.1508  142.2485  164.1164 C.3     1  UNL1        0.0975
     10 H         139.1535  144.8773  161.4153 H       1  UNL1        0.1510
     11 C         141.7310  141.2120  166.4270 C.3     1  UNL1        0.1085
     12 O         142.6281  142.3176  166.8989 O.3     1  UNL1       -0.3826
     13 H         142.6932  142.2905  167.8663 H       1  UNL1        0.2107
     14 C         140.8339  140.1063  165.9550 C.ar    1  UNL1        0.0026
     15 C         139.4183  140.0283  166.4449 C.ar    1  UNL1       -0.0020
     16 C         138.5213  138.9225  165.9729 C.ar    1  UNL1        0.0006
     17 C         139.0398  137.8949  165.0111 C.ar    1  UNL1        0.0114
     18 C         140.4554  137.9730  164.5212 C.ar    1  UNL1        0.0574
     19 CL        140.9740  136.9453  163.5594 Cl      1  UNL1       -0.0823
     20 C         141.3525  139.0787  164.9932 C.ar    1  UNL1        0.0094
     21 C         142.5084  140.2292  167.2516 C.3     1  UNL1        0.0313
     22 C         142.5928  140.3997  168.7395 C.3     1  UNL1        0.0053
     23 C         141.6456  139.6569  169.6344 C.3     1  UNL1        0.0322
     24 C         140.3481  140.2892  170.0429 C.3     1  UNL1        0.1423
     25 O         139.9958  141.6623  169.5526 O.3     1  UNL1       -0.3511
     26 C         139.8493  142.7924  170.5282 C.3     1  UNL1        0.1741
     27 C         139.9902  144.3215  159.4951 C.3     1  UNL1        0.0887
     28 C         139.2865  143.3366  158.6091 C.3     1  UNL1        0.0884
     29 C         138.4767  140.9962  159.3939 C.3     1  UNL1        0.0859
     30 N         139.5319  141.8666  158.7785 N.3     1  UNL1       -0.2949
     31 H         139.7188  141.4902  157.8490 H       1  UNL1        0.1233
     32 C         140.8909  145.3600  158.8951 C.3     1  UNL1        0.0210
     33 C         140.7581  145.7208  157.4452 C.3     1  UNL1        0.0017
     34 C         139.6824  146.6683  157.0036 C.3     1  UNL1        0.0001
     35 C         139.5496  147.0291  155.5537 C.3     1  UNL1        0.0000
     36 C         140.4926  146.4423  154.5454 C.3     1  UNL1        0.0000
     37 C         141.5683  145.4949  154.9870 C.3     1  UNL1        0.0000
     38 C         141.7011  145.1341  156.4369 C.3     1  UNL1        0.0001
@<TRIPOS>BOND
     1    29    30    1
     2    30    28    1
     3    27    28    1
     4    27    32    1
     5    32    33    1
     6    33    34    1
     7    34    35    1
     8    35    36    1
     9    36    37    1
    10    37    38    1
    11    27     1    1
    12     1     2   am
    13     2     3    2
    14     2     4   am
    15     4     5    1
    16     5     6    1
    17     6     7    1
    18     8     7    1
    19     8    11    1
    20    11    12    1
    21    11    21    1
    22    21    22    1
    23    22    23    1
    24    23    24    1
    25    24    25    1
    26    25    26    1
    27    11    14    1
    28    14    15   ar
    29    15    16   ar
    30    16    17   ar
    31    17    18   ar
    32    18    19    1
    33    18    20   ar
    34     8     9    1
    35    38    33    1
    36     9     4    1
    37    20    14   ar
    38    30    31    1
    39     1    10    1
    40    12    13    1
@<TRIPOS>MOLECULE
*****
 38 40 0 0 0
SMALL
GASTEIGER

@<TRIPOS>ATOM
      1 N         140.2438  145.5713  159.0727 N.am    1  UNL1       -0.2890
      2 C         139.9602  144.1539  159.4738 C.2     1  UNL1        0.3040
      3 O         140.0992  143.0483  158.4697 O.2     1  UNL1       -0.2526
      4 N         139.5377  143.8423  160.8789 N.am    1  UNL1       -0.2641
      5 C         139.3987  144.9481  161.8830 C.3     1  UNL1        0.0949
      6 C         138.9762  144.6365  163.2881 C.3     1  UNL1        0.0217
      7 C         138.6926  143.2191  163.6891 C.3     1  UNL1        0.0061
      8 C         138.8316  142.1135  162.6851 C.3     1  UNL1        0.0485
      9 C         139.2541  142.4251  161.2800 C.3     1  UNL1        0.0975
     10 H         140.1526  146.2970  159.7317 H       1  UNL1        0.1510
     11 C         138.5480  140.6962  163.0862 C.3     1  UNL1        0.1085
     12 O         137.4126  140.6463  162.1073 O.3     1  UNL1       -0.3826
     13 H         137.4981  139.8549  161.5530 H       1  UNL1        0.2107
     14 C         139.6834  140.7461  164.0651 C.ar    1  UNL1        0.0026
     15 C         141.0800  141.0022  163.5814 C.ar    1  UNL1       -0.0020
     16 C         142.2155  141.0521  164.5605 C.ar    1  UNL1        0.0006
     17 C         141.9543  140.8458  166.0230 C.ar    1  UNL1        0.0114
     18 C         140.5577  140.5896  166.5067 C.ar    1  UNL1        0.0574
     19 CL        140.2965  140.3833  167.9693 Cl      1  UNL1       -0.0823
     20 C         139.4223  140.5398  165.5278 C.ar    1  UNL1        0.0094
     21 C         138.2645  139.2789  163.4873 C.3     1  UNL1        0.0313
     22 C         138.2174  138.1999  162.4464 C.3     1  UNL1        0.0053
     23 C         139.3655  138.0227  161.4975 C.3     1  UNL1        0.0322
     24 C         140.7544  137.8261  162.0290 C.3     1  UNL1        0.1423
     25 O         141.0035  136.8369  163.1287 O.3     1  UNL1       -0.3511
     26 C         141.2448  137.3173  164.5291 C.3     1  UNL1        0.1741
     27 C         140.6663  145.8829  157.6676 C.3     1  UNL1        0.0887
     28 C         142.1240  145.9733  157.3254 C.3     1  UNL1        0.0884
     29 C         142.7251  143.7191  156.1821 C.3     1  UNL1        0.0859
     30 N         142.6664  145.2176  156.1486 N.3     1  UNL1       -0.2949
     31 H         142.0918  145.4719  155.3452 H       1  UNL1        0.1233
     32 C         139.6313  146.1042  156.6048 C.3     1  UNL1        0.0210
     33 C         139.4394  147.4711  156.0177 C.3     1  UNL1        0.0017
     34 C         138.6545  148.5061  156.7677 C.3     1  UNL1        0.0001
     35 C         138.4626  149.8730  156.1806 C.3     1  UNL1        0.0000
     36 C         139.0558  150.2049  154.8434 C.3     1  UNL1        0.0000
     37 C         139.8407  149.1700  154.0934 C.3     1  UNL1        0.0000
     38 C         140.0326  147.8031  154.6805 C.3     1  UNL1        0.0001
@<TRIPOS>BOND
     1    29    30    1
     2    30    28    1
     3    27    28    1
     4    27    32    1
     5    32    33    1
     6    33    34    1
     7    34    35    1
     8    35    36    1
     9    36    37    1
    10    37    38    1
    11    27     1    1
    12     1     2   am
    13     2     3    2
    14     2     4   am
    15     4     5    1
    16     5     6    1
    17     6     7    1
    18     8     7    1
    19     8    11    1
    20    11    12    1
    21    11    21    1
    22    21    22    1
    23    22    23    1
    24    23    24    1
    25    24    25    1
    26    25    26    1
    27    11    14    1
    28    14    15   ar
    29    15    16   ar
    30    16    17   ar
    31    17    18   ar
    32    18    19    1
    33    18    20   ar
    34     8     9    1
    35    38    33    1
    36     9     4    1
    37    20    14   ar
    38    30    31    1
    39     1    10    1
    40    12    13    1
@<TRIPOS>MOLECULE
*****
 38 40 0 0 0
SMALL
GASTEIGER

@<TRIPOS>ATOM
      1 N         143.8373  142.8631  160.5107 N.am    1  UNL1       -0.2890
      2 C         142.8307  142.2580  161.4439 C.2     1  UNL1        0.3040
      3 O         141.6557  141.5053  160.8939 O.2     1  UNL1       -0.2526
      4 N         142.9993  142.4057  162.9271 N.am    1  UNL1       -0.2641
      5 C         144.1745  143.1584  163.4771 C.3     1  UNL1        0.0949
      6 C         144.3431  143.3060  164.9602 C.3     1  UNL1        0.0217
      7 C         143.3365  142.7009  165.8934 C.3     1  UNL1        0.0061
      8 C         142.1614  141.9482  165.3434 C.3     1  UNL1        0.0485
      9 C         141.9928  141.8006  163.8602 C.3     1  UNL1        0.0975
     10 H         144.6086  143.3571  160.8717 H       1  UNL1        0.1510
     11 C         141.1549  141.3432  166.2765 C.3     1  UNL1        0.1085
     12 O         142.2394  140.5300  166.9189 O.3     1  UNL1       -0.3826
     13 H         142.1975  140.6385  167.8819 H       1  UNL1        0.2107
     14 C         140.0705  142.1564  165.6342 C.ar    1  UNL1        0.0026
     15 C         139.9618  143.6240  165.9244 C.ar    1  UNL1       -0.0020
     16 C         138.8773  144.4373  165.2819 C.ar    1  UNL1        0.0006
     17 C         137.9016  143.7828  164.3494 C.ar    1  UNL1        0.0114
     18 C         138.0103  142.3152  164.0592 C.ar    1  UNL1        0.0574
     19 CL        137.0346  141.6608  163.1266 Cl      1  UNL1       -0.0823
     20 C         139.0948  141.5020  164.7016 C.ar    1  UNL1        0.0094
     21 C         140.1483  140.7381  167.2097 C.3     1  UNL1        0.0313
     22 C         140.2999  140.9125  168.6918 C.3     1  UNL1        0.0053
     23 C         140.5369  142.2777  169.2660 C.3     1  UNL1        0.0322
     24 C         141.6088  142.4829  170.2951 C.3     1  UNL1        0.1423
     25 O         142.8394  143.2681  169.9500 O.3     1  UNL1       -0.3511
     26 C         144.1783  142.5921  169.9262 C.3     1  UNL1        0.1741
     27 C         143.6687  142.7155  159.0276 C.3     1  UNL1        0.0887
     28 C         142.9683  143.7845  158.2422 C.3     1  UNL1        0.0884
     29 C         140.9905  145.4548  158.4613 C.3     1  UNL1        0.0859
     30 N         142.3043  144.9253  158.9548 N.3     1  UNL1       -0.2949
     31 H         142.1575  144.6250  159.9185 H       1  UNL1        0.1233
     32 C         144.2005  141.4989  158.3297 C.3     1  UNL1        0.0210
     33 C         145.3102  141.6330  157.3293 C.3     1  UNL1        0.0017
     34 C         145.3233  140.7687  156.1034 C.3     1  UNL1        0.0001
     35 C         146.4329  140.9029  155.1031 C.3     1  UNL1        0.0000
     36 C         147.5294  141.9013  155.3287 C.3     1  UNL1        0.0000
     37 C         147.5163  142.7655  156.5546 C.3     1  UNL1        0.0000
     38 C         146.4066  142.6314  157.5549 C.3     1  UNL1        0.0001
@<TRIPOS>BOND
     1    29    30    1
     2    30    28    1
     3    27    28    1
     4    27    32    1
     5    32    33    1
     6    33    34    1
     7    34    35    1
     8    35    36    1
     9    36    37    1
    10    37    38    1
    11    27     1    1
    12     1     2   am
    13     2     3    2
    14     2     4   am
    15     4     5    1
    16     5     6    1
    17     6     7    1
    18     8     7    1
    19     8    11    1
    20    11    12    1
    21    11    21    1
    22    21    22    1
    23    22    23    1
    24    23    24    1
    25    24    25    1
    26    25    26    1
    27    11    14    1
    28    14    15   ar
    29    15    16   ar
    30    16    17   ar
    31    17    18   ar
    32    18    19    1
    33    18    20   ar
    34     8     9    1
    35    38    33    1
    36     9     4    1
    37    20    14   ar
    38    30    31    1
    39     1    10    1
    40    12    13    1
@<TRIPOS>MOLECULE
*****
 38 40 0 0 0
SMALL
GASTEIGER

@<TRIPOS>ATOM
      1 N         139.8618  144.4759  159.9709 N.am    1  UNL1       -0.2890
      2 C         139.8075  143.2564  160.8427 C.2     1  UNL1        0.3040
      3 O         140.0834  141.9031  160.2574 O.2     1  UNL1       -0.2526
      4 N         139.4773  143.3902  162.2997 N.am    1  UNL1       -0.2641
      5 C         139.2015  144.7435  162.8850 C.3     1  UNL1        0.0949
      6 C         138.8713  144.8773  164.3421 C.3     1  UNL1        0.0217
      7 C         138.8170  143.6578  165.2139 C.3     1  UNL1        0.0061
      8 C         139.0928  142.3046  164.6286 C.3     1  UNL1        0.0485
      9 C         139.4230  142.1708  163.1715 C.3     1  UNL1        0.0975
     10 H         139.6808  145.3641  160.3550 H       1  UNL1        0.1510
     11 C         139.0385  141.0852  165.5004 C.3     1  UNL1        0.1085
     12 O         137.7150  140.7146  164.8995 O.3     1  UNL1       -0.3826
     13 H         137.7391  139.7890  164.6102 H       1  UNL1        0.2107
     14 C         140.3619  141.4558  166.1012 C.ar    1  UNL1        0.0026
     15 C         140.4466  141.8438  167.5477 C.ar    1  UNL1       -0.0020
     16 C         141.7702  142.2144  168.1485 C.ar    1  UNL1        0.0006
     17 C         143.0089  142.1970  167.3029 C.ar    1  UNL1        0.0114
     18 C         142.9243  141.8089  165.8564 C.ar    1  UNL1        0.0574
     19 CL        144.1631  141.7915  165.0108 Cl      1  UNL1       -0.0823
     20 C         141.6008  141.4384  165.2556 C.ar    1  UNL1        0.0094
     21 C         138.9842  139.8657  166.3722 C.3     1  UNL1        0.0313
     22 C         138.5486  138.5509  165.7964 C.3     1  UNL1        0.0053
     23 C         139.4060  137.8561  164.7806 C.3     1  UNL1        0.0322
     24 C         138.9188  137.6968  163.3708 C.3     1  UNL1        0.1423
     25 O         138.1659  138.8114  162.7070 O.3     1  UNL1       -0.3511
     26 C         138.2667  139.0051  161.2230 C.3     1  UNL1        0.1741
     27 C         140.1920  144.3420  158.5138 C.3     1  UNL1        0.0887
     28 C         139.1869  143.7546  157.5679 C.3     1  UNL1        0.0884
     29 C         137.7868  141.5694  157.4480 C.3     1  UNL1        0.0859
     30 N         139.1124  142.2682  157.3808 N.3     1  UNL1       -0.2949
     31 H         139.5049  142.0671  156.4611 H       1  UNL1        0.1233
     32 C         141.5273  144.7956  158.0026 C.3     1  UNL1        0.0210
     33 C         142.6218  143.7958  157.7735 C.3     1  UNL1        0.0017
     34 C         143.3657  143.2175  158.9406 C.3     1  UNL1        0.0001
     35 C         144.4601  142.2177  158.7114 C.3     1  UNL1        0.0000
     36 C         144.8107  141.7962  157.3152 C.3     1  UNL1        0.0000
     37 C         144.0667  142.3745  156.1481 C.3     1  UNL1        0.0000
     38 C         142.9723  143.3743  156.3773 C.3     1  UNL1        0.0001
@<TRIPOS>BOND
     1    29    30    1
     2    30    28    1
     3    27    28    1
     4    27    32    1
     5    32    33    1
     6    33    34    1
     7    34    35    1
     8    35    36    1
     9    36    37    1
    10    37    38    1
    11    27     1    1
    12     1     2   am
    13     2     3    2
    14     2     4   am
    15     4     5    1
    16     5     6    1
    17     6     7    1
    18     8     7    1
    19     8    11    1
    20    11    12    1
    21    11    21    1
    22    21    22    1
    23    22    23    1
    24    23    24    1
    25    24    25    1
    26    25    26    1
    27    11    14    1
    28    14    15   ar
    29    15    16   ar
    30    16    17   ar
    31    17    18   ar
    32    18    19    1
    33    18    20   ar
    34     8     9    1
    35    38    33    1
    36     9     4    1
    37    20    14   ar
    38    30    31    1
    39     1    10    1
    40    12    13    1
@<TRIPOS>MOLECULE
*****
 38 40 0 0 0
SMALL
GASTEIGER

@<TRIPOS>ATOM
      1 N         141.6980  142.4491  166.9738 N.am    1  UNL1       -0.2890
      2 C         141.1777  142.8270  165.6186 C.2     1  UNL1        0.3040
      3 O         139.6997  142.9290  165.3843 O.2     1  UNL1       -0.2526
      4 N         142.1356  143.1029  164.4977 N.am    1  UNL1       -0.2641
      5 C         143.6137  143.0009  164.7320 C.3     1  UNL1        0.0949
      6 C         144.5715  143.2769  163.6111 C.3     1  UNL1        0.0217
      7 C         144.0512  143.6547  162.2558 C.3     1  UNL1        0.0061
      8 C         142.5732  143.7567  162.0216 C.3     1  UNL1        0.0485
      9 C         141.6153  143.4808  163.1425 C.3     1  UNL1        0.0975
     10 H         142.6681  142.3822  167.1276 H       1  UNL1        0.1510
     11 C         142.0530  144.1346  160.6664 C.3     1  UNL1        0.1085
     12 O         141.4391  145.3737  161.2476 O.3     1  UNL1       -0.3826
     13 H         141.6988  146.1428  160.7166 H       1  UNL1        0.2107
     14 C         142.6668  142.8955  160.0853 C.ar    1  UNL1        0.0026
     15 C         142.2468  141.5450  160.5851 C.ar    1  UNL1       -0.0020
     16 C         142.8607  140.3059  160.0039 C.ar    1  UNL1        0.0006
     17 C         143.8946  140.4173  158.9229 C.ar    1  UNL1        0.0114
     18 C         144.3146  141.7677  158.4230 C.ar    1  UNL1        0.0574
     19 CL        145.3486  141.8790  157.3420 Cl      1  UNL1       -0.0823
     20 C         143.7008  143.0068  159.0042 C.ar    1  UNL1        0.0094
     21 C         141.5327  144.5124  159.3111 C.3     1  UNL1        0.0313
     22 C         140.0545  144.5560  159.0606 C.3     1  UNL1        0.0053
     23 C         139.2915  143.2818  158.8509 C.3     1  UNL1        0.0322
     24 C         138.7087  142.5545  160.0263 C.3     1  UNL1        0.1423
     25 O         138.1385  143.3270  161.1788 O.3     1  UNL1       -0.3511
     26 C         137.7880  142.6208  162.4550 C.3     1  UNL1        0.1741
     27 C         140.7402  142.1732  168.0947 C.3     1  UNL1        0.0887
     28 C         140.3948  143.2589  169.0705 C.3     1  UNL1        0.0884
     29 C         142.4543  142.7582  170.5729 C.3     1  UNL1        0.0859
     30 N         141.4100  143.7138  170.0767 N.3     1  UNL1       -0.2949
     31 H         141.9060  144.5013  169.6592 H       1  UNL1        0.1233
     32 C         140.1277  140.8117  168.2399 C.3     1  UNL1        0.0210
     33 C         140.0736  139.8842  167.0622 C.3     1  UNL1        0.0017
     34 C         138.7505  139.5079  166.4641 C.3     1  UNL1        0.0001
     35 C         138.6964  138.5804  165.2865 C.3     1  UNL1        0.0000
     36 C         139.9654  138.0293  164.7069 C.3     1  UNL1        0.0000
     37 C         141.2885  138.4056  165.3050 C.3     1  UNL1        0.0000
     38 C         141.3426  139.3331  166.4826 C.3     1  UNL1        0.0001
@<TRIPOS>BOND
     1    29    30    1
     2    30    28    1
     3    27    28    1
     4    27    32    1
     5    32    33    1
     6    33    34    1
     7    34    35    1
     8    35    36    1
     9    36    37    1
    10    37    38    1
    11    27     1    1
    12     1     2   am
    13     2     3    2
    14     2     4   am
    15     4     5    1
    16     5     6    1
    17     6     7    1
    18     8     7    1
    19     8    11    1
    20    11    12    1
    21    11    21    1
    22    21    22    1
    23    22    23    1
    24    23    24    1
    25    24    25    1
    26    25    26    1
    27    11    14    1
    28    14    15   ar
    29    15    16   ar
    30    16    17   ar
    31    17    18   ar
    32    18    19    1
    33    18    20   ar
    34     8     9    1
    35    38    33    1
    36     9     4    1
    37    20    14   ar
    38    30    31    1
    39     1    10    1
    40    12    13    1
@<TRIPOS>MOLECULE
*****
 38 40 0 0 0
SMALL
GASTEIGER

@<TRIPOS>ATOM
      1 N         142.0453  139.9026  157.7532 N.am    1  UNL1       -0.2890
      2 C         142.5302  140.6599  158.9538 C.2     1  UNL1        0.3040
      3 O         143.8529  140.3174  159.5727 O.2     1  UNL1       -0.2526
      4 N         141.6922  141.7596  159.5356 N.am    1  UNL1       -0.2641
      5 C         140.3694  142.1020  158.9167 C.3     1  UNL1        0.0949
      6 C         139.5315  143.2017  159.4985 C.3     1  UNL1        0.0217
      7 C         140.0163  143.9590  160.6992 C.3     1  UNL1        0.0061
      8 C         141.3391  143.6165  161.3180 C.3     1  UNL1        0.0485
      9 C         142.1770  142.5168  160.7362 C.3     1  UNL1        0.0975
     10 H         141.1771  140.1274  157.3470 H       1  UNL1        0.1510
     11 C         141.8239  144.3738  162.5186 C.3     1  UNL1        0.1085
     12 O         143.0204  144.8384  161.7424 O.3     1  UNL1       -0.3826
     13 H         143.1083  145.8005  161.8290 H       1  UNL1        0.2107
     14 C         140.6274  143.9092  163.2948 C.ar    1  UNL1        0.0026
     15 C         139.5728  144.8929  163.7073 C.ar    1  UNL1       -0.0020
     16 C         138.3763  144.4282  164.4836 C.ar    1  UNL1        0.0006
     17 C         138.2344  142.9799  164.8472 C.ar    1  UNL1        0.0114
     18 C         139.2890  141.9962  164.4347 C.ar    1  UNL1        0.0574
     19 CL        139.1470  140.5479  164.7984 Cl      1  UNL1       -0.0823
     20 C         140.4855  142.4608  163.6585 C.ar    1  UNL1        0.0094
     21 C         142.3087  145.1310  163.7193 C.3     1  UNL1        0.0313
     22 C         143.7620  145.0997  164.0892 C.3     1  UNL1        0.0053
     23 C         144.2515  144.1316  165.1250 C.3     1  UNL1        0.0322
     24 C         144.1209  142.6553  164.8930 C.3     1  UNL1        0.1423
     25 O         145.2326  141.8993  164.2280 O.3     1  UNL1       -0.3511
     26 C         145.3823  141.9436  162.7361 C.3     1  UNL1        0.1741
     27 C         142.8832  138.8029  157.1714 C.3     1  UNL1        0.0887
     28 C         143.9326  139.1210  156.1477 C.3     1  UNL1        0.0884
     29 C         145.3915  141.2536  156.4184 C.3     1  UNL1        0.0859
     30 N         145.2173  139.7713  156.5677 N.3     1  UNL1       -0.2949
     31 H         145.3458  139.5578  157.5569 H       1  UNL1        0.1233
     32 C         142.6719  137.3851  157.6132 C.3     1  UNL1        0.0210
     33 C         142.4775  136.3027  156.5931 C.3     1  UNL1        0.0017
     34 C         143.5034  135.2184  156.4452 C.3     1  UNL1        0.0001
     35 C         143.3089  134.1361  155.4251 C.3     1  UNL1        0.0000
     36 C         142.0886  134.1379  154.5529 C.3     1  UNL1        0.0000
     37 C         141.0627  135.2222  154.7008 C.3     1  UNL1        0.0000
     38 C         141.2571  136.3046  155.7209 C.3     1  UNL1        0.0001
@<TRIPOS>BOND
     1    29    30    1
     2    30    28    1
     3    27    28    1
     4    27    32    1
     5    32    33    1
     6    33    34    1
     7    34    35    1
     8    35    36    1
     9    36    37    1
    10    37    38    1
    11    27     1    1
    12     1     2   am
    13     2     3    2
    14     2     4   am
    15     4     5    1
    16     5     6    1
    17     6     7    1
    18     8     7    1
    19     8    11    1
    20    11    12    1
    21    11    21    1
    22    21    22    1
    23    22    23    1
    24    23    24    1
    25    24    25    1
    26    25    26    1
    27    11    14    1
    28    14    15   ar
    29    15    16   ar
    30    16    17   ar
    31    17    18   ar
    32    18    19    1
    33    18    20   ar
    34     8     9    1
    35    38    33    1
    36     9     4    1
    37    20    14   ar
    38    30    31    1
    39     1    10    1
    40    12    13    1
