@<TRIPOS>MOLECULE
*****
 27 31 0 0 0
SMALL
GASTEIGER

@<TRIPOS>ATOM
      1 C         139.6612  139.8048  165.3762 C.ar    1  UNL1        0.0741
      2 C         139.3014  138.3531  165.4901 C.ar    1  UNL1        0.0062
      3 C         138.8419  137.5971  164.2788 C.ar    1  UNL1        0.0034
      4 C         138.7422  138.2927  162.9537 C.ar    1  UNL1        0.0392
      5 C         139.1020  139.7444  162.8397 C.ar    1  UNL1        0.1662
      6 O         139.1028  140.6900  161.6753 O.2     1  UNL1       -0.4237
      7 C         139.5628  142.0304  162.1669 C.ar    1  UNL1        0.2925
      8 N         139.8463  141.9133  163.6352 N.ar    1  UNL1       -0.1945
      9 C         139.5615  140.5005  164.0510 C.ar    1  UNL1        0.1245
     10 N         139.7130  143.2702  161.3360 N.pl3   1  UNL1       -0.2585
     11 C         139.7846  143.1673  159.8412 C.3     1  UNL1        0.1272
     12 C         139.9347  144.4071  159.0104 C.3     1  UNL1        0.1637
     13 O         140.0132  145.7498  159.6743 O.3     1  UNL1       -0.3501
     14 C         139.9417  145.8528  161.1690 C.3     1  UNL1        0.1637
     15 C         139.7915  144.6130  161.9999 C.3     1  UNL1        0.1272
     16 O         140.1309  139.8920  167.9300 O.2     1  UNL1       -0.2701
     17 C         140.1207  140.5610  166.5875 C.2     1  UNL1        0.2474
     18 N         140.5701  141.9860  166.4562 N.am    1  UNL1       -0.3011
     19 H         140.5998  142.5099  165.6232 H       1  UNL1        0.1497
     20 C         141.2768  142.8523  168.8884 C.3     1  UNL1        0.0878
     21 C         142.5979  142.5938  169.0549 C.3     1  UNL1        0.0919
     22 N         143.3965  142.4575  169.2020 N.3     1  UNL1       -0.2713
     23 C         142.6183  143.1219  170.2987 C.3     1  UNL1        0.0722
     24 C         141.1573  143.4078  170.1146 C.3     1  UNL1        0.0191
     25 C         140.4746  143.0291  168.8338 C.3     1  UNL1        0.0221
     26 C         141.2528  142.3647  167.7370 C.3     1  UNL1        0.0191
     27 C         142.7138  142.0788  167.9211 C.3     1  UNL1        0.0722
@<TRIPOS>BOND
     1    16    17    2
     2    17    18   am
     3    20    18    1
     4    20    21    1
     5    21    22    1
     6    22    23    1
     7    23    24    1
     8    24    25    1
     9    25    26    1
    10    26    27    1
    11    17     1    1
    12     1     2   ar
    13     2     3   ar
    14     3     4   ar
    15     4     5   ar
    16     5     6   ar
    17     6     7   ar
    18     7    10    1
    19    10    11    1
    20    11    12    1
    21    12    13    1
    22    13    14    1
    23    14    15    1
    24     7     8   ar
    25     8     9   ar
    26    25    20    1
    27     9     1   ar
    28    27    22    1
    29     9     5   ar
    30    15    10    1
    31    18    19    1
@<TRIPOS>MOLECULE
*****
 27 31 0 0 0
SMALL
GASTEIGER

@<TRIPOS>ATOM
      1 C         142.9644  140.5160  165.2553 C.ar    1  UNL1        0.0741
      2 C         144.0001  139.4333  165.1863 C.ar    1  UNL1        0.0062
      3 C         144.7494  139.1925  163.9094 C.ar    1  UNL1        0.0034
      4 C         144.4630  140.0345  162.7015 C.ar    1  UNL1        0.0392
      5 C         143.4272  141.1172  162.7705 C.ar    1  UNL1        0.1662
      6 O         142.9327  142.0997  161.7505 O.2     1  UNL1       -0.4237
      7 C         141.8777  142.9476  162.3971 C.ar    1  UNL1        0.2925
      8 N         141.7202  142.4893  163.8166 N.ar    1  UNL1       -0.1945
      9 C         142.6779  141.3580  164.0473 C.ar    1  UNL1        0.1245
     10 N         141.1143  144.0589  161.7395 N.pl3   1  UNL1       -0.2585
     11 C         140.3959  145.0740  162.5781 C.3     1  UNL1        0.1272
     12 C         139.6325  146.1852  161.9205 C.3     1  UNL1        0.1637
     13 O         139.5876  146.2813  160.4243 O.3     1  UNL1       -0.3501
     14 C         140.3060  145.2662  159.5856 C.3     1  UNL1        0.1637
     15 C         141.0694  144.1550  160.2432 C.3     1  UNL1        0.1272
     16 O         142.9296  140.6736  167.8483 O.2     1  UNL1       -0.2701
     17 C         142.2150  140.7569  166.5322 C.2     1  UNL1        0.2474
     18 N         140.7509  141.0810  166.4929 N.am    1  UNL1       -0.3011
     19 H         140.1959  141.1579  165.6834 H       1  UNL1        0.1497
     20 C         139.9148  141.4130  169.0141 C.3     1  UNL1        0.0878
     21 C         140.1242  142.7091  169.3550 C.3     1  UNL1        0.0919
     22 N         140.2320  143.4853  169.6074 N.3     1  UNL1       -0.2713
     23 C         139.6252  142.5376  170.5991 C.3     1  UNL1        0.0722
     24 C         139.3936  141.1043  170.2221 C.3     1  UNL1        0.0191
     25 C         139.7688  140.6188  168.8534 C.3     1  UNL1        0.0221
     26 C         140.3757  141.5665  167.8616 C.3     1  UNL1        0.0191
     27 C         140.6073  142.9998  168.2386 C.3     1  UNL1        0.0722
@<TRIPOS>BOND
     1    16    17    2
     2    17    18   am
     3    20    18    1
     4    20    21    1
     5    21    22    1
     6    22    23    1
     7    23    24    1
     8    24    25    1
     9    25    26    1
    10    26    27    1
    11    17     1    1
    12     1     2   ar
    13     2     3   ar
    14     3     4   ar
    15     4     5   ar
    16     5     6   ar
    17     6     7   ar
    18     7    10    1
    19    10    11    1
    20    11    12    1
    21    12    13    1
    22    13    14    1
    23    14    15    1
    24     7     8   ar
    25     8     9   ar
    26    25    20    1
    27     9     1   ar
    28    27    22    1
    29     9     5   ar
    30    15    10    1
    31    18    19    1
@<TRIPOS>MOLECULE
*****
 27 31 0 0 0
SMALL
GASTEIGER

@<TRIPOS>ATOM
      1 C         139.5109  142.6040  164.9810 C.ar    1  UNL1        0.0741
      2 C         138.5895  143.7866  165.0279 C.ar    1  UNL1        0.0062
      3 C         138.1005  144.4074  163.7529 C.ar    1  UNL1        0.0034
      4 C         138.5330  143.8455  162.4311 C.ar    1  UNL1        0.0392
      5 C         139.4545  142.6629  162.3842 C.ar    1  UNL1        0.1662
      6 O         140.0469  141.8969  161.2387 O.2     1  UNL1       -0.4237
      7 C         140.9020  140.8026  161.8056 C.ar    1  UNL1        0.2925
      8 N         140.8381  140.8924  163.3016 N.ar    1  UNL1       -0.1945
      9 C         139.9435  142.0422  163.6591 C.ar    1  UNL1        0.1245
     10 N         141.6838  139.7954  161.0154 N.pl3   1  UNL1       -0.2585
     11 C         142.8433  139.0832  161.6464 C.3     1  UNL1        0.1272
     12 C         143.6250  138.0761  160.8562 C.3     1  UNL1        0.1637
     13 O         143.2472  137.7812  159.4348 O.3     1  UNL1       -0.3501
     14 C         142.0877  138.4934  158.8037 C.3     1  UNL1        0.1637
     15 C         141.3060  139.5005  159.5940 C.3     1  UNL1        0.1272
     16 O         140.6473  142.8368  167.3057 O.2     1  UNL1       -0.2701
     17 C         140.0000  141.9831  166.2559 C.2     1  UNL1        0.2474
     18 N         139.8415  140.5086  166.4810 N.am    1  UNL1       -0.3011
     19 H         139.4322  139.8676  165.8559 H       1  UNL1        0.1497
     20 C         140.8690  139.9290  168.8840 C.3     1  UNL1        0.0878
     21 C         142.1654  139.5713  168.7072 C.3     1  UNL1        0.0919
     22 N         142.9557  139.3474  168.6499 N.3     1  UNL1       -0.2713
     23 C         142.3623  139.3602  170.0274 C.3     1  UNL1        0.0722
     24 C         140.9287  139.7558  170.2229 C.3     1  UNL1        0.0191
     25 C         140.0884  140.1386  169.0408 C.3     1  UNL1        0.0221
     26 C         140.6818  140.1258  167.6631 C.3     1  UNL1        0.0191
     27 C         142.1154  139.7302  167.4677 C.3     1  UNL1        0.0722
@<TRIPOS>BOND
     1    16    17    2
     2    17    18   am
     3    20    18    1
     4    20    21    1
     5    21    22    1
     6    22    23    1
     7    23    24    1
     8    24    25    1
     9    25    26    1
    10    26    27    1
    11    17     1    1
    12     1     2   ar
    13     2     3   ar
    14     3     4   ar
    15     4     5   ar
    16     5     6   ar
    17     6     7   ar
    18     7    10    1
    19    10    11    1
    20    11    12    1
    21    12    13    1
    22    13    14    1
    23    14    15    1
    24     7     8   ar
    25     8     9   ar
    26    25    20    1
    27     9     1   ar
    28    27    22    1
    29     9     5   ar
    30    15    10    1
    31    18    19    1
@<TRIPOS>MOLECULE
*****
 27 31 0 0 0
SMALL
GASTEIGER

@<TRIPOS>ATOM
      1 C         139.4136  140.1490  163.5101 C.ar    1  UNL1        0.0741
      2 C         139.0093  138.8752  162.8290 C.ar    1  UNL1        0.0062
      3 C         138.7581  137.6384  163.6396 C.ar    1  UNL1        0.0034
      4 C         138.9111  137.6754  165.1313 C.ar    1  UNL1        0.0392
      5 C         139.3154  138.9492  165.8124 C.ar    1  UNL1        0.1662
      6 O         139.5438  139.2867  167.2560 O.2     1  UNL1       -0.4237
      7 C         139.9362  140.7322  167.3376 C.ar    1  UNL1        0.2925
      8 N         139.9504  141.2880  165.9444 N.ar    1  UNL1       -0.1945
      9 C         139.5667  140.1860  165.0018 C.ar    1  UNL1        0.1245
     10 N         140.2580  141.4890  168.5921 N.pl3   1  UNL1       -0.2585
     11 C         140.4720  140.7500  169.8798 C.3     1  UNL1        0.1272
     12 C         140.7937  141.5068  171.1342 C.3     1  UNL1        0.1637
     13 O         140.9015  143.0026  171.1010 O.3     1  UNL1       -0.3501
     14 C         140.6875  143.7415  169.8134 C.3     1  UNL1        0.1637
     15 C         140.3657  142.9848  168.5589 C.3     1  UNL1        0.1272
     16 O         138.9075  141.6142  161.4251 O.2     1  UNL1       -0.2701
     17 C         139.6649  141.3859  162.6995 C.2     1  UNL1        0.2474
     18 N         140.6737  142.3945  163.1634 N.am    1  UNL1       -0.3011
     19 H         141.2184  142.3353  163.9813 H       1  UNL1        0.1497
     20 C         140.7300  144.3838  161.3731 C.3     1  UNL1        0.0878
     21 C         139.7542  145.2669  161.7010 C.3     1  UNL1        0.0919
     22 N         139.1758  145.8308  161.8603 N.3     1  UNL1       -0.2713
     23 C         140.0456  146.0840  160.6648 C.3     1  UNL1        0.0722
     24 C         141.1248  145.1073  160.3021 C.3     1  UNL1        0.0191
     25 C         141.3341  143.8775  161.1349 C.3     1  UNL1        0.0221
     26 C         140.4643  143.6243  162.3305 C.3     1  UNL1        0.0191
     27 C         139.3851  144.6010  162.6932 C.3     1  UNL1        0.0722
@<TRIPOS>BOND
     1    16    17    2
     2    17    18   am
     3    20    18    1
     4    20    21    1
     5    21    22    1
     6    22    23    1
     7    23    24    1
     8    24    25    1
     9    25    26    1
    10    26    27    1
    11    17     1    1
    12     1     2   ar
    13     2     3   ar
    14     3     4   ar
    15     4     5   ar
    16     5     6   ar
    17     6     7   ar
    18     7    10    1
    19    10    11    1
    20    11    12    1
    21    12    13    1
    22    13    14    1
    23    14    15    1
    24     7     8   ar
    25     8     9   ar
    26    25    20    1
    27     9     1   ar
    28    27    22    1
    29     9     5   ar
    30    15    10    1
    31    18    19    1
@<TRIPOS>MOLECULE
*****
 27 31 0 0 0
SMALL
GASTEIGER

@<TRIPOS>ATOM
      1 C         142.0817  142.5894  164.3217 C.ar    1  UNL1        0.0741
      2 C         143.2104  143.1271  165.1504 C.ar    1  UNL1        0.0062
      3 C         144.1039  144.1970  164.5965 C.ar    1  UNL1        0.0034
      4 C         143.8688  144.7291  163.2139 C.ar    1  UNL1        0.0392
      5 C         142.7401  144.1914  162.3852 C.ar    1  UNL1        0.1662
      6 O         142.2672  144.5189  160.9999 O.2     1  UNL1       -0.4237
      7 C         141.0815  143.6513  160.6976 C.ar    1  UNL1        0.2925
      8 N         140.8214  142.7877  161.8961 N.ar    1  UNL1       -0.1945
      9 C         141.8465  143.1215  162.9391 C.ar    1  UNL1        0.1245
     10 N         140.2940  143.6481  159.4209 N.pl3   1  UNL1       -0.2585
     11 C         140.6462  144.6041  158.3200 C.3     1  UNL1        0.1272
     12 C         139.8588  144.6008  157.0434 C.3     1  UNL1        0.1637
     13 O         138.7191  143.6415  156.8676 O.3     1  UNL1       -0.3501
     14 C         138.3669  142.6855  157.9684 C.3     1  UNL1        0.1637
     15 C         139.1543  142.6888  159.2451 C.3     1  UNL1        0.1272
     16 O         141.6894  140.6092  165.9573 O.2     1  UNL1       -0.2701
     17 C         141.1880  141.5194  164.8756 C.2     1  UNL1        0.2474
     18 N         139.7931  141.3598  164.3478 N.am    1  UNL1       -0.3011
     19 H         139.3743  141.9047  163.6428 H       1  UNL1        0.1497
     20 C         138.6442  139.3306  165.6624 C.3     1  UNL1        0.0878
     21 C         138.9663  138.1814  165.0179 C.3     1  UNL1        0.0919
     22 N         139.1348  137.4587  164.6612 N.3     1  UNL1       -0.2713
     23 C         138.2714  137.4145  165.8870 C.3     1  UNL1        0.0722
     24 C         137.9152  138.6854  166.5997 C.3     1  UNL1        0.0191
     25 C         138.4224  140.0005  166.0866 C.3     1  UNL1        0.0221
     26 C         139.2859  140.0447  164.8608 C.3     1  UNL1        0.0191
     27 C         139.6421  138.7738  164.1481 C.3     1  UNL1        0.0722
@<TRIPOS>BOND
     1    16    17    2
     2    17    18   am
     3    20    18    1
     4    20    21    1
     5    21    22    1
     6    22    23    1
     7    23    24    1
     8    24    25    1
     9    25    26    1
    10    26    27    1
    11    17     1    1
    12     1     2   ar
    13     2     3   ar
    14     3     4   ar
    15     4     5   ar
    16     5     6   ar
    17     6     7   ar
    18     7    10    1
    19    10    11    1
    20    11    12    1
    21    12    13    1
    22    13    14    1
    23    14    15    1
    24     7     8   ar
    25     8     9   ar
    26    25    20    1
    27     9     1   ar
    28    27    22    1
    29     9     5   ar
    30    15    10    1
    31    18    19    1
@<TRIPOS>MOLECULE
*****
 27 31 0 0 0
SMALL
GASTEIGER

@<TRIPOS>ATOM
      1 C         143.2665  141.6150  164.6869 C.ar    1  UNL1        0.0741
      2 C         144.7340  141.9242  164.7170 C.ar    1  UNL1        0.0062
      3 C         145.5112  141.9986  163.4362 C.ar    1  UNL1        0.0034
      4 C         144.8209  141.7637  162.1254 C.ar    1  UNL1        0.0392
      5 C         143.3535  141.4545  162.0953 C.ar    1  UNL1        0.1662
      6 O         142.4088  141.1787  160.9632 O.2     1  UNL1       -0.4237
      7 C         141.0478  140.9339  161.5443 C.ar    1  UNL1        0.2925
      8 N         141.1512  141.0584  163.0356 N.ar    1  UNL1       -0.1945
      9 C         142.5763  141.3802  163.3760 C.ar    1  UNL1        0.1245
     10 N         139.8020  140.6198  160.7701 N.pl3   1  UNL1       -0.2585
     11 C         138.6422  139.9568  161.4521 C.3     1  UNL1        0.1272
     12 C         137.3965  139.6427  160.6779 C.3     1  UNL1        0.1637
     13 O         137.3106  139.9916  159.2216 O.3     1  UNL1       -0.3501
     14 C         138.4704  140.6546  158.5395 C.3     1  UNL1        0.1637
     15 C         139.7161  140.9687  159.3138 C.3     1  UNL1        0.1272
     16 O         143.0963  140.8929  167.1768 O.2     1  UNL1       -0.2701
     17 C         142.4893  141.5406  165.9677 C.2     1  UNL1        0.2474
     18 N         141.1051  142.1140  166.0393 N.am    1  UNL1       -0.3011
     19 H         140.6224  142.5568  165.3043 H       1  UNL1        0.1497
     20 C         140.1797  141.7201  168.5201 C.3     1  UNL1        0.0878
     21 C         139.5969  140.4958  168.5577 C.3     1  UNL1        0.0919
     22 N         139.2325  139.7610  168.6291 N.3     1  UNL1       -0.2713
     23 C         139.2629  140.6153  169.8617 C.3     1  UNL1        0.0722
     24 C         139.9074  141.9691  169.8202 C.3     1  UNL1        0.0191
     25 C         140.5214  142.4687  168.5461 C.3     1  UNL1        0.0221
     26 C         140.4910  141.6144  167.3134 C.3     1  UNL1        0.0191
     27 C         139.8466  140.2606  167.3550 C.3     1  UNL1        0.0722
@<TRIPOS>BOND
     1    16    17    2
     2    17    18   am
     3    20    18    1
     4    20    21    1
     5    21    22    1
     6    22    23    1
     7    23    24    1
     8    24    25    1
     9    25    26    1
    10    26    27    1
    11    17     1    1
    12     1     2   ar
    13     2     3   ar
    14     3     4   ar
    15     4     5   ar
    16     5     6   ar
    17     6     7   ar
    18     7    10    1
    19    10    11    1
    20    11    12    1
    21    12    13    1
    22    13    14    1
    23    14    15    1
    24     7     8   ar
    25     8     9   ar
    26    25    20    1
    27     9     1   ar
    28    27    22    1
    29     9     5   ar
    30    15    10    1
    31    18    19    1
@<TRIPOS>MOLECULE
*****
 27 31 0 0 0
SMALL
GASTEIGER

@<TRIPOS>ATOM
      1 C         139.9369  142.5519  164.2852 C.ar    1  UNL1        0.0741
      2 C         139.4440  143.6679  165.1578 C.ar    1  UNL1        0.0062
      3 C         138.3898  144.6067  164.6508 C.ar    1  UNL1        0.0034
      4 C         137.8284  144.4296  163.2711 C.ar    1  UNL1        0.0392
      5 C         138.3213  143.3136  162.3985 C.ar    1  UNL1        0.1662
      6 O         137.9580  142.8936  161.0051 O.2     1  UNL1       -0.4237
      7 C         138.7877  141.6952  160.6509 C.ar    1  UNL1        0.2925
      8 N         139.6638  141.3745  161.8255 N.ar    1  UNL1       -0.1945
      9 C         139.3756  142.3748  162.9055 C.ar    1  UNL1        0.1245
     10 N         138.7482  140.9485  159.3505 N.pl3   1  UNL1       -0.2585
     11 C         139.5032  139.6610  159.2016 C.3     1  UNL1        0.1272
     12 C         139.4637  138.9145  157.9013 C.3     1  UNL1        0.1637
     13 O         138.6690  139.4554  156.7498 O.3     1  UNL1       -0.3501
     14 C         137.9140  140.7429  156.8986 C.3     1  UNL1        0.1637
     15 C         137.9535  141.4894  158.1990 C.3     1  UNL1        0.1272
     16 O         141.9925  142.0856  165.8042 O.2     1  UNL1       -0.2701
     17 C         140.9912  141.6130  164.7922 C.2     1  UNL1        0.2474
     18 N         141.0442  140.2016  164.2872 N.am    1  UNL1       -0.3011
     19 H         140.4350  139.7992  163.6268 H       1  UNL1        0.1497
     20 C         143.0889  138.9711  165.5000 C.3     1  UNL1        0.0878
     21 C         144.2166  139.2480  164.7989 C.3     1  UNL1        0.0919
     22 N         144.9268  139.3881  164.4067 N.3     1  UNL1       -0.2713
     23 C         144.9974  138.5220  165.6292 C.3     1  UNL1        0.0722
     24 C         143.7503  138.2157  166.4045 C.3     1  UNL1        0.0191
     25 C         142.4326  138.7755  165.9572 C.3     1  UNL1        0.0221
     26 C         142.3619  139.6418  164.7345 C.3     1  UNL1        0.0191
     27 C         143.6090  139.9480  163.9593 C.3     1  UNL1        0.0722
@<TRIPOS>BOND
     1    16    17    2
     2    17    18   am
     3    20    18    1
     4    20    21    1
     5    21    22    1
     6    22    23    1
     7    23    24    1
     8    24    25    1
     9    25    26    1
    10    26    27    1
    11    17     1    1
    12     1     2   ar
    13     2     3   ar
    14     3     4   ar
    15     4     5   ar
    16     5     6   ar
    17     6     7   ar
    18     7    10    1
    19    10    11    1
    20    11    12    1
    21    12    13    1
    22    13    14    1
    23    14    15    1
    24     7     8   ar
    25     8     9   ar
    26    25    20    1
    27     9     1   ar
    28    27    22    1
    29     9     5   ar
    30    15    10    1
    31    18    19    1
@<TRIPOS>MOLECULE
*****
 27 31 0 0 0
SMALL
GASTEIGER

@<TRIPOS>ATOM
      1 C         139.8451  143.6710  162.9292 C.ar    1  UNL1        0.0741
      2 C         139.4765  145.1230  163.0045 C.ar    1  UNL1        0.0062
      3 C         139.7766  146.0337  161.8510 C.ar    1  UNL1        0.0034
      4 C         140.4452  145.4924  160.6222 C.ar    1  UNL1        0.0392
      5 C         140.8138  144.0403  160.5469 C.ar    1  UNL1        0.1662
      6 O         141.4760  143.2272  159.4745 O.2     1  UNL1       -0.4237
      7 C         141.5852  141.8139  159.9651 C.ar    1  UNL1        0.2925
      8 N         140.9905  141.7536  161.3408 N.ar    1  UNL1       -0.1945
      9 C         140.5137  143.1296  161.7004 C.ar    1  UNL1        0.1245
     10 N         142.1841  140.6630  159.2121 N.pl3   1  UNL1       -0.2585
     11 C         142.1688  139.2870  159.8091 C.3     1  UNL1        0.1272
     12 C         142.7676  138.1362  159.0561 C.3     1  UNL1        0.1637
     13 O         143.3817  138.3613  157.7062 O.3     1  UNL1       -0.3501
     14 C         143.3970  139.7373  157.1093 C.3     1  UNL1        0.1637
     15 C         142.7982  140.8882  157.8623 C.3     1  UNL1        0.1272
     16 O         138.4437  143.1025  165.0418 O.2     1  UNL1       -0.2701
     17 C         139.5450  142.7602  164.0827 C.2     1  UNL1        0.2474
     18 N         140.3464  141.5072  164.2771 N.am    1  UNL1       -0.3011
     19 H         141.0852  141.1972  163.7050 H       1  UNL1        0.1497
     20 C         139.4112  140.2632  166.4551 C.3     1  UNL1        0.0878
     21 C         138.3867  139.4623  166.0695 C.3     1  UNL1        0.0919
     22 N         137.7597  138.9619  165.8837 N.3     1  UNL1       -0.2713
     23 C         138.1659  139.0180  167.3266 C.3     1  UNL1        0.0722
     24 C         139.2989  139.9037  167.7529 C.3     1  UNL1        0.0191
     25 C         140.0257  140.7334  166.7365 C.3     1  UNL1        0.0221
     26 C         139.6196  140.6774  165.2935 C.3     1  UNL1        0.0191
     27 C         138.4866  139.7917  164.8672 C.3     1  UNL1        0.0722
@<TRIPOS>BOND
     1    16    17    2
     2    17    18   am
     3    20    18    1
     4    20    21    1
     5    21    22    1
     6    22    23    1
     7    23    24    1
     8    24    25    1
     9    25    26    1
    10    26    27    1
    11    17     1    1
    12     1     2   ar
    13     2     3   ar
    14     3     4   ar
    15     4     5   ar
    16     5     6   ar
    17     6     7   ar
    18     7    10    1
    19    10    11    1
    20    11    12    1
    21    12    13    1
    22    13    14    1
    23    14    15    1
    24     7     8   ar
    25     8     9   ar
    26    25    20    1
    27     9     1   ar
    28    27    22    1
    29     9     5   ar
    30    15    10    1
    31    18    19    1
@<TRIPOS>MOLECULE
*****
 27 31 0 0 0
SMALL
GASTEIGER

@<TRIPOS>ATOM
      1 C         142.1276  142.5410  163.8390 C.ar    1  UNL1        0.0741
      2 C         142.5483  143.7532  164.6160 C.ar    1  UNL1        0.0062
      3 C         143.5730  144.6897  164.0478 C.ar    1  UNL1        0.0034
      4 C         144.1769  144.4141  162.7027 C.ar    1  UNL1        0.0392
      5 C         143.7562  143.2020  161.9258 C.ar    1  UNL1        0.1662
      6 O         144.1735  142.6744  160.5851 O.2     1  UNL1       -0.4237
      7 C         143.4067  141.4118  160.3246 C.ar    1  UNL1        0.2925
      8 N         142.5155  141.1590  161.5043 N.ar    1  UNL1       -0.1945
      9 C         142.7316  142.2654  162.4940 C.ar    1  UNL1        0.1245
     10 N         143.5125  140.5529  159.0994 N.pl3   1  UNL1       -0.2585
     11 C         142.8035  139.2321  159.0459 C.3     1  UNL1        0.1272
     12 C         142.9094  138.3732  157.8207 C.3     1  UNL1        0.1637
     13 O         143.7242  138.8351  156.6491 O.3     1  UNL1       -0.3501
     14 C         144.4332  140.1558  156.7026 C.3     1  UNL1        0.1637
     15 C         144.3273  141.0147  157.9277 C.3     1  UNL1        0.1272
     16 O         139.7312  141.5379  163.8038 O.2     1  UNL1       -0.2701
     17 C         141.1028  141.6044  164.4072 C.2     1  UNL1        0.2474
     18 N         141.4498  140.7343  165.5787 N.am    1  UNL1       -0.3011
     19 H         142.3180  140.7054  166.0422 H       1  UNL1        0.1497
     20 C         139.2901  139.2740  166.1860 C.3     1  UNL1        0.0878
     21 C         139.3081  138.1615  165.4102 C.3     1  UNL1        0.0919
     22 N         139.2759  137.4719  164.9615 N.3     1  UNL1       -0.2713
     23 C         138.1592  137.6861  165.9398 C.3     1  UNL1        0.0722
     24 C         138.1394  138.9163  166.7978 C.3     1  UNL1        0.0191
     25 C         139.2362  139.9324  166.6774 C.3     1  UNL1        0.0221
     26 C         140.3530  139.7182  165.6991 C.3     1  UNL1        0.0191
     27 C         140.3728  138.4880  164.8411 C.3     1  UNL1        0.0722
@<TRIPOS>BOND
     1    16    17    2
     2    17    18   am
     3    20    18    1
     4    20    21    1
     5    21    22    1
     6    22    23    1
     7    23    24    1
     8    24    25    1
     9    25    26    1
    10    26    27    1
    11    17     1    1
    12     1     2   ar
    13     2     3   ar
    14     3     4   ar
    15     4     5   ar
    16     5     6   ar
    17     6     7   ar
    18     7    10    1
    19    10    11    1
    20    11    12    1
    21    12    13    1
    22    13    14    1
    23    14    15    1
    24     7     8   ar
    25     8     9   ar
    26    25    20    1
    27     9     1   ar
    28    27    22    1
    29     9     5   ar
    30    15    10    1
    31    18    19    1
