@<TRIPOS>MOLECULE
*****
 21 22 0 0 0
SMALL
GASTEIGER

@<TRIPOS>ATOM
      1 C         140.1534  142.3190  163.9494 C.ar    1  UNL1        0.1804
      2 N         140.2456  143.6916  163.3518 N.ar    1  UNL1       -0.1839
      3 C         139.0774  144.2649  162.6058 C.ar    1  UNL1        0.2857
      4 O         139.1696  145.6377  162.0082 O.2     1  UNL1       -0.2650
      5 C         137.8168  143.4655  162.4575 C.ar    1  UNL1        0.1186
      6 C         137.7246  142.0929  163.0551 C.ar    1  UNL1        0.2130
      7 O         136.4641  141.2934  162.9068 O.3     1  UNL1       -0.4927
      8 N         138.8929  141.5196  163.8011 N.ar    1  UNL1       -0.2549
      9 H         135.7343  141.6515  162.4409 H       1  UNL1        0.2937
     10 C         138.8007  140.1468  164.3987 C.ar    1  UNL1        0.1023
     11 C         138.3291  139.9743  165.8122 C.ar    1  UNL1        0.0207
     12 C         138.2369  138.6017  166.4098 C.ar    1  UNL1        0.0017
     13 C         138.6161  137.4014  165.5940 C.ar    1  UNL1        0.0032
     14 C         139.0877  137.5738  164.1805 C.ar    1  UNL1        0.0384
     15 C         139.1799  138.9466  163.5829 C.ar    1  UNL1        0.1548
     16 O         139.6515  139.1191  162.1694 O.3     1  UNL1       -0.4700
     17 C         139.1407  138.2088  161.0920 C.3     1  UNL1        0.2525
     18 S         141.3217  141.7457  164.6953 S.3     1  UNL1       -0.0769
     19 C         142.3526  140.9357  163.9665 C.3     1  UNL1        0.0651
     20 C         142.2255  139.0891  165.7897 C.3     1  UNL1        0.0009
     21 C         142.7002  139.5576  164.4461 C.3     1  UNL1        0.0121
@<TRIPOS>BOND
     1    20    21    1
     2    21    19    1
     3    19    18    1
     4    18     1    1
     5     1     2   ar
     6     2     3   ar
     7     3     4    2
     8     3     5   ar
     9     5     6   ar
    10     6     7    1
    11     6     8   ar
    12     8    10    1
    13    10    11   ar
    14    11    12   ar
    15    12    13   ar
    16    13    14   ar
    17    14    15   ar
    18    15    16    1
    19    16    17    1
    20     8     1   ar
    21    15    10   ar
    22     7     9    1
@<TRIPOS>MOLECULE
*****
 21 22 0 0 0
SMALL
GASTEIGER

@<TRIPOS>ATOM
      1 C         139.8450  140.2978  167.3625 C.ar    1  UNL1        0.1804
      2 N         138.9836  139.6364  168.3972 N.ar    1  UNL1       -0.1839
      3 C         138.8265  140.2600  169.7523 C.ar    1  UNL1        0.2857
      4 O         137.9650  139.5986  170.7870 O.2     1  UNL1       -0.2650
      5 C         139.5307  141.5450  170.0728 C.ar    1  UNL1        0.1186
      6 C         140.3921  142.2064  169.0382 C.ar    1  UNL1        0.2130
      7 O         141.0965  143.4914  169.3587 O.3     1  UNL1       -0.4927
      8 N         140.5493  141.5828  167.6830 N.ar    1  UNL1       -0.2549
      9 H         140.9983  143.8810  170.2052 H       1  UNL1        0.2937
     10 C         141.4107  142.2442  166.6484 C.ar    1  UNL1        0.1023
     11 C         142.8922  142.0089  166.6441 C.ar    1  UNL1        0.0207
     12 C         143.7536  142.6703  165.6095 C.ar    1  UNL1        0.0017
     13 C         143.1336  143.5670  164.5791 C.ar    1  UNL1        0.0032
     14 C         141.6522  143.8023  164.5834 C.ar    1  UNL1        0.0384
     15 C         140.7907  143.1408  165.6180 C.ar    1  UNL1        0.1548
     16 O         139.3093  143.3761  165.6223 O.3     1  UNL1       -0.4700
     17 C         138.7623  144.7203  165.2428 C.3     1  UNL1        0.2525
     18 S         140.0021  139.6742  166.0074 S.3     1  UNL1       -0.0769
     19 C         138.8242  139.0329  165.3357 C.3     1  UNL1        0.0651
     20 C         139.4393  137.6909  163.1978 C.3     1  UNL1        0.0009
     21 C         138.9872  137.7205  164.6278 C.3     1  UNL1        0.0121
@<TRIPOS>BOND
     1    20    21    1
     2    21    19    1
     3    19    18    1
     4    18     1    1
     5     1     2   ar
     6     2     3   ar
     7     3     4    2
     8     3     5   ar
     9     5     6   ar
    10     6     7    1
    11     6     8   ar
    12     8    10    1
    13    10    11   ar
    14    11    12   ar
    15    12    13   ar
    16    13    14   ar
    17    14    15   ar
    18    15    16    1
    19    16    17    1
    20     8     1   ar
    21    15    10   ar
    22     7     9    1
@<TRIPOS>MOLECULE
*****
 21 22 0 0 0
SMALL
GASTEIGER

@<TRIPOS>ATOM
      1 C         139.6973  140.3632  167.6144 C.ar    1  UNL1        0.1804
      2 N         138.5911  139.4671  168.0866 N.ar    1  UNL1       -0.1839
      3 C         137.8789  138.5770  167.1117 C.ar    1  UNL1        0.2857
      4 O         136.7726  137.6808  167.5841 O.2     1  UNL1       -0.2650
      5 C         138.2731  138.5830  165.6644 C.ar    1  UNL1        0.1186
      6 C         139.3793  139.4791  165.1922 C.ar    1  UNL1        0.2130
      7 O         139.7735  139.4851  163.7448 O.3     1  UNL1       -0.4927
      8 N         140.0915  140.3692  166.1671 N.ar    1  UNL1       -0.2549
      9 H         139.3287  138.9291  163.1358 H       1  UNL1        0.2937
     10 C         141.1978  141.2654  165.6947 C.ar    1  UNL1        0.1023
     11 C         142.6154  140.7753  165.7036 C.ar    1  UNL1        0.0207
     12 C         143.7217  141.6713  165.2312 C.ar    1  UNL1        0.0017
     13 C         143.4104  143.0576  164.7500 C.ar    1  UNL1        0.0032
     14 C         141.9927  143.5477  164.7412 C.ar    1  UNL1        0.0384
     15 C         140.8864  142.6515  165.2136 C.ar    1  UNL1        0.1548
     16 O         139.4688  143.1416  165.2048 O.3     1  UNL1       -0.4700
     17 C         138.6206  142.9616  163.9807 C.3     1  UNL1        0.2525
     18 S         140.4094  141.2534  168.5893 S.3     1  UNL1       -0.0769
     19 C         139.8570  141.4465  169.9704 C.3     1  UNL1        0.0651
     20 C         140.4753  143.9690  169.8981 C.3     1  UNL1        0.0009
     21 C         139.7585  142.8254  170.5527 C.3     1  UNL1        0.0121
@<TRIPOS>BOND
     1    20    21    1
     2    21    19    1
     3    19    18    1
     4    18     1    1
     5     1     2   ar
     6     2     3   ar
     7     3     4    2
     8     3     5   ar
     9     5     6   ar
    10     6     7    1
    11     6     8   ar
    12     8    10    1
    13    10    11   ar
    14    11    12   ar
    15    12    13   ar
    16    13    14   ar
    17    14    15   ar
    18    15    16    1
    19    16    17    1
    20     8     1   ar
    21    15    10   ar
    22     7     9    1
@<TRIPOS>MOLECULE
*****
 21 22 0 0 0
SMALL
GASTEIGER

@<TRIPOS>ATOM
      1 C         139.6477  140.4982  167.3609 C.ar    1  UNL1        0.1804
      2 N         139.2545  139.6536  168.5364 N.ar    1  UNL1       -0.1839
      3 C         139.3679  140.2042  169.9270 C.ar    1  UNL1        0.2857
      4 O         138.9747  139.3594  171.1026 O.2     1  UNL1       -0.2650
      5 C         139.8746  141.5995  170.1422 C.ar    1  UNL1        0.1186
      6 C         140.2678  142.4442  168.9667 C.ar    1  UNL1        0.2130
      7 O         140.7745  143.8396  169.1818 O.3     1  UNL1       -0.4927
      8 N         140.1544  141.8936  167.5760 N.ar    1  UNL1       -0.2549
      9 H         140.8454  144.1836  170.0505 H       1  UNL1        0.2937
     10 C         140.5476  142.7383  166.4005 C.ar    1  UNL1        0.1023
     11 C         139.5566  143.6867  165.7935 C.ar    1  UNL1        0.0207
     12 C         139.9498  144.5314  164.6180 C.ar    1  UNL1        0.0017
     13 C         141.3340  144.4278  164.0495 C.ar    1  UNL1        0.0032
     14 C         142.3251  143.4795  164.6565 C.ar    1  UNL1        0.0384
     15 C         141.9318  142.6347  165.8320 C.ar    1  UNL1        0.1548
     16 O         142.9228  141.6863  166.4390 O.3     1  UNL1       -0.4700
     17 C         143.2878  140.4213  165.7202 C.3     1  UNL1        0.2525
     18 S         139.5343  139.9476  165.9702 S.3     1  UNL1       -0.0769
     19 C         138.5649  138.8407  165.6786 C.3     1  UNL1        0.0651
     20 C         140.4455  137.3676  164.6570 C.3     1  UNL1        0.0009
     21 C         138.9881  137.6766  164.8326 C.3     1  UNL1        0.0121
@<TRIPOS>BOND
     1    20    21    1
     2    21    19    1
     3    19    18    1
     4    18     1    1
     5     1     2   ar
     6     2     3   ar
     7     3     4    2
     8     3     5   ar
     9     5     6   ar
    10     6     7    1
    11     6     8   ar
    12     8    10    1
    13    10    11   ar
    14    11    12   ar
    15    12    13   ar
    16    13    14   ar
    17    14    15   ar
    18    15    16    1
    19    16    17    1
    20     8     1   ar
    21    15    10   ar
    22     7     9    1
@<TRIPOS>MOLECULE
*****
 21 22 0 0 0
SMALL
GASTEIGER

@<TRIPOS>ATOM
      1 C         140.9415  140.7586  165.4407 C.ar    1  UNL1        0.1804
      2 N         141.4938  140.0341  164.2491 N.ar    1  UNL1       -0.1839
      3 C         142.5752  139.0102  164.4289 C.ar    1  UNL1        0.2857
      4 O         143.1275  138.2856  163.2372 O.2     1  UNL1       -0.2650
      5 C         143.1042  138.7108  165.8002 C.ar    1  UNL1        0.1186
      6 C         142.5518  139.4354  166.9917 C.ar    1  UNL1        0.2130
      7 O         143.0809  139.1361  168.3631 O.3     1  UNL1       -0.4927
      8 N         141.4705  140.4593  166.8120 N.ar    1  UNL1       -0.2549
      9 H         143.7564  138.4965  168.4754 H       1  UNL1        0.2937
     10 C         140.9181  141.1839  168.0037 C.ar    1  UNL1        0.1023
     11 C         141.4940  142.5082  168.4094 C.ar    1  UNL1        0.0207
     12 C         140.9417  143.2328  169.6010 C.ar    1  UNL1        0.0017
     13 C         139.8135  142.6331  170.3869 C.ar    1  UNL1        0.0032
     14 C         139.2377  141.3087  169.9812 C.ar    1  UNL1        0.0384
     15 C         139.7901  140.5841  168.7896 C.ar    1  UNL1        0.1548
     16 O         139.2142  139.2598  168.3839 O.3     1  UNL1       -0.4700
     17 C         138.1724  139.1933  167.3067 C.3     1  UNL1        0.2525
     18 S         139.8601  141.7825  165.2610 S.3     1  UNL1       -0.0769
     19 C         140.2183  143.2030  164.9388 C.3     1  UNL1        0.0651
     20 C         137.8844  144.3205  164.7058 C.3     1  UNL1        0.0009
     21 C         139.2691  144.3124  165.2827 C.3     1  UNL1        0.0121
@<TRIPOS>BOND
     1    20    21    1
     2    21    19    1
     3    19    18    1
     4    18     1    1
     5     1     2   ar
     6     2     3   ar
     7     3     4    2
     8     3     5   ar
     9     5     6   ar
    10     6     7    1
    11     6     8   ar
    12     8    10    1
    13    10    11   ar
    14    11    12   ar
    15    12    13   ar
    16    13    14   ar
    17    14    15   ar
    18    15    16    1
    19    16    17    1
    20     8     1   ar
    21    15    10   ar
    22     7     9    1
@<TRIPOS>MOLECULE
*****
 21 22 0 0 0
SMALL
GASTEIGER

@<TRIPOS>ATOM
      1 C         142.1206  141.2235  163.8692 C.ar    1  UNL1        0.1804
      2 N         143.4133  141.7287  163.3003 N.ar    1  UNL1       -0.1839
      3 C         144.7000  141.0299  163.6260 C.ar    1  UNL1        0.2857
      4 O         145.9928  141.5352  163.0570 O.2     1  UNL1       -0.2650
      5 C         144.6941  139.8260  164.5206 C.ar    1  UNL1        0.1186
      6 C         143.4014  139.3208  165.0896 C.ar    1  UNL1        0.2130
      7 O         143.3955  138.1168  165.9843 O.3     1  UNL1       -0.4927
      8 N         142.1147  140.0195  164.7639 N.ar    1  UNL1       -0.2549
      9 H         144.1992  137.6803  166.1877 H       1  UNL1        0.2937
     10 C         140.8220  139.5142  165.3329 C.ar    1  UNL1        0.1023
     11 C         140.0531  138.4456  164.6141 C.ar    1  UNL1        0.0207
     12 C         138.7604  137.9403  165.1830 C.ar    1  UNL1        0.0017
     13 C         138.2366  138.5037  166.4708 C.ar    1  UNL1        0.0032
     14 C         139.0056  139.5723  167.1896 C.ar    1  UNL1        0.0384
     15 C         140.2983  140.0776  166.6206 C.ar    1  UNL1        0.1548
     16 O         141.0672  141.1463  167.3394 O.3     1  UNL1       -0.4700
     17 C         142.1355  140.7691  168.3226 C.3     1  UNL1        0.2525
     18 S         140.8339  141.9222  163.5435 S.3     1  UNL1       -0.0769
     19 C         140.5131  143.2400  164.1841 C.3     1  UNL1        0.0651
     20 C         138.7875  144.7901  165.3545 C.3     1  UNL1        0.0009
     21 C         139.2190  143.4205  164.9209 C.3     1  UNL1        0.0121
@<TRIPOS>BOND
     1    20    21    1
     2    21    19    1
     3    19    18    1
     4    18     1    1
     5     1     2   ar
     6     2     3   ar
     7     3     4    2
     8     3     5   ar
     9     5     6   ar
    10     6     7    1
    11     6     8   ar
    12     8    10    1
    13    10    11   ar
    14    11    12   ar
    15    12    13   ar
    16    13    14   ar
    17    14    15   ar
    18    15    16    1
    19    16    17    1
    20     8     1   ar
    21    15    10   ar
    22     7     9    1
@<TRIPOS>MOLECULE
*****
 21 22 0 0 0
SMALL
GASTEIGER

@<TRIPOS>ATOM
      1 C         137.8363  140.9969  162.6732 C.ar    1  UNL1        0.1804
      2 N         137.5187  141.0061  161.2072 N.ar    1  UNL1       -0.1839
      3 C         137.9770  139.8763  160.3334 C.ar    1  UNL1        0.2857
      4 O         137.6594  139.8855  158.8674 O.2     1  UNL1       -0.2650
      5 C         138.7529  138.7373  160.9256 C.ar    1  UNL1        0.1186
      6 C         139.0705  138.7281  162.3915 C.ar    1  UNL1        0.2130
      7 O         139.8464  137.5891  162.9837 O.3     1  UNL1       -0.4927
      8 N         138.6122  139.8579  163.2653 N.ar    1  UNL1       -0.2549
      9 H         140.1327  136.8833  162.4379 H       1  UNL1        0.2937
     10 C         138.9298  139.8487  164.7313 C.ar    1  UNL1        0.1023
     11 C         138.0216  139.1386  165.6910 C.ar    1  UNL1        0.0207
     12 C         138.3392  139.1293  167.1569 C.ar    1  UNL1        0.0017
     13 C         139.5650  139.8302  167.6633 C.ar    1  UNL1        0.0032
     14 C         140.4731  140.5403  166.7036 C.ar    1  UNL1        0.0384
     15 C         140.1555  140.5495  165.2376 C.ar    1  UNL1        0.1548
     16 O         141.0637  141.2596  164.2779 O.3     1  UNL1       -0.4700
     17 C         142.2194  140.5301  163.6596 C.3     1  UNL1        0.2525
     18 S         137.3780  142.1267  163.5470 S.3     1  UNL1       -0.0769
     19 C         137.9482  143.5009  163.3566 C.3     1  UNL1        0.0651
     20 C         139.3191  144.1568  165.4639 C.3     1  UNL1        0.0009
     21 C         138.1604  144.3957  164.5417 C.3     1  UNL1        0.0121
@<TRIPOS>BOND
     1    20    21    1
     2    21    19    1
     3    19    18    1
     4    18     1    1
     5     1     2   ar
     6     2     3   ar
     7     3     4    2
     8     3     5   ar
     9     5     6   ar
    10     6     7    1
    11     6     8   ar
    12     8    10    1
    13    10    11   ar
    14    11    12   ar
    15    12    13   ar
    16    13    14   ar
    17    14    15   ar
    18    15    16    1
    19    16    17    1
    20     8     1   ar
    21    15    10   ar
    22     7     9    1
@<TRIPOS>MOLECULE
*****
 21 22 0 0 0
SMALL
GASTEIGER

@<TRIPOS>ATOM
      1 C         142.2702  141.5874  164.3713 C.ar    1  UNL1        0.1804
      2 N         143.5726  142.0331  163.7755 N.ar    1  UNL1       -0.1839
      3 C         144.7776  141.1434  163.8558 C.ar    1  UNL1        0.2857
      4 O         146.0800  141.5892  163.2599 O.2     1  UNL1       -0.2650
      5 C         144.6802  139.8080  164.5319 C.ar    1  UNL1        0.1186
      6 C         143.3778  139.3623  165.1277 C.ar    1  UNL1        0.2130
      7 O         143.2804  138.0269  165.8039 O.3     1  UNL1       -0.4927
      8 N         142.1728  140.2520  165.0475 N.ar    1  UNL1       -0.2549
      9 H         144.0331  137.4711  165.8541 H       1  UNL1        0.2937
     10 C         140.8704  139.8062  165.6434 C.ar    1  UNL1        0.1023
     11 C         140.5207  140.1866  167.0516 C.ar    1  UNL1        0.0207
     12 C         139.2184  139.7408  167.6475 C.ar    1  UNL1        0.0017
     13 C         138.2656  138.9147  166.8352 C.ar    1  UNL1        0.0032
     14 C         138.6153  138.5343  165.4269 C.ar    1  UNL1        0.0384
     15 C         139.9177  138.9801  164.8310 C.ar    1  UNL1        0.1548
     16 O         140.2674  138.5997  163.4228 O.3     1  UNL1       -0.4700
     17 C         140.9497  137.2928  163.1464 C.3     1  UNL1        0.2525
     18 S         141.0652  142.4771  164.2910 S.3     1  UNL1       -0.0769
     19 C         141.2117  143.9573  164.4839 C.3     1  UNL1        0.0651
     20 C         139.0113  144.7764  163.3714 C.3     1  UNL1        0.0009
     21 C         140.4920  144.9072  163.5730 C.3     1  UNL1        0.0121
@<TRIPOS>BOND
     1    20    21    1
     2    21    19    1
     3    19    18    1
     4    18     1    1
     5     1     2   ar
     6     2     3   ar
     7     3     4    2
     8     3     5   ar
     9     5     6   ar
    10     6     7    1
    11     6     8   ar
    12     8    10    1
    13    10    11   ar
    14    11    12   ar
    15    12    13   ar
    16    13    14   ar
    17    14    15   ar
    18    15    16    1
    19    16    17    1
    20     8     1   ar
    21    15    10   ar
    22     7     9    1
@<TRIPOS>MOLECULE
*****
 21 22 0 0 0
SMALL
GASTEIGER

@<TRIPOS>ATOM
      1 C         140.5522  142.1606  165.3234 C.ar    1  UNL1        0.1804
      2 N         140.1239  143.5402  165.7272 N.ar    1  UNL1       -0.1839
      3 C         138.7495  144.0306  165.3797 C.ar    1  UNL1        0.2857
      4 O         138.3212  145.4103  165.7835 O.2     1  UNL1       -0.2650
      5 C         137.8036  143.1413  164.6286 C.ar    1  UNL1        0.1186
      6 C         138.2319  141.7617  164.2248 C.ar    1  UNL1        0.2130
      7 O         137.2859  140.8724  163.4736 O.3     1  UNL1       -0.4927
      8 N         139.6063  141.2713  164.5723 N.ar    1  UNL1       -0.2549
      9 H         136.4274  141.1787  163.2566 H       1  UNL1        0.2937
     10 C         140.0346  139.8916  164.1685 C.ar    1  UNL1        0.1023
     11 C         140.6221  139.6566  162.8085 C.ar    1  UNL1        0.0207
     12 C         141.0504  138.2770  162.4047 C.ar    1  UNL1        0.0017
     13 C         140.8913  137.1322  163.3609 C.ar    1  UNL1        0.0032
     14 C         140.3038  137.3672  164.7209 C.ar    1  UNL1        0.0384
     15 C         139.8755  138.7469  165.1247 C.ar    1  UNL1        0.1548
     16 O         139.2880  138.9819  166.4847 O.3     1  UNL1       -0.4700
     17 C         137.8336  138.7096  166.7307 C.3     1  UNL1        0.2525
     18 S         141.9266  141.6702  165.6709 S.3     1  UNL1       -0.0769
     19 C         143.0715  141.9217  164.7350 C.3     1  UNL1        0.0651
     20 C         143.8376  139.4420  164.8537 C.3     1  UNL1        0.0009
     21 C         143.8302  140.7672  164.1508 C.3     1  UNL1        0.0121
@<TRIPOS>BOND
     1    20    21    1
     2    21    19    1
     3    19    18    1
     4    18     1    1
     5     1     2   ar
     6     2     3   ar
     7     3     4    2
     8     3     5   ar
     9     5     6   ar
    10     6     7    1
    11     6     8   ar
    12     8    10    1
    13    10    11   ar
    14    11    12   ar
    15    12    13   ar
    16    13    14   ar
    17    14    15   ar
    18    15    16    1
    19    16    17    1
    20     8     1   ar
    21    15    10   ar
    22     7     9    1
