@<TRIPOS>MOLECULE
*****
 21 23 0 0 0
SMALL
GASTEIGER

@<TRIPOS>ATOM
      1 C         141.9115  142.4511  166.2370 C.2     1  UNL1        0.2494
      2 O         143.3876  142.1852  166.2587 O.2     1  UNL1       -0.2699
      3 N         141.3034  143.2135  165.0973 N.am    1  UNL1       -0.2779
      4 C         140.4327  140.5866  167.2796 C.ar    1  UNL1        0.0296
      5 C         139.5647  140.0901  168.3976 C.ar    1  UNL1        0.0063
      6 C         139.3075  140.9614  169.5911 C.ar    1  UNL1        0.0005
      7 C         139.9183  142.3294  169.6666 C.ar    1  UNL1        0.0002
      8 C         140.7863  142.8259  168.5486 C.ar    1  UNL1        0.0050
      9 C         141.0435  141.9545  167.3551 C.ar    1  UNL1        0.0592
     10 C         139.5600  138.9600  165.4513 C.3     1  UNL1        0.0742
     11 S         140.6899  139.7152  166.0860 S.3     1  UNL1       -0.1126
     12 C         142.1713  143.7100  163.9793 C.3     1  UNL1        0.0926
     13 C         142.7105  142.8849  162.8486 C.3     1  UNL1        0.0383
     14 C         143.5249  143.7838  161.9661 C.3     1  UNL1        0.0704
     15 N         143.4891  145.1645  162.5514 N.3     1  UNL1       -0.2960
     16 C         142.6525  145.1189  163.7956 C.3     1  UNL1        0.0887
     17 H         143.0775  145.8140  161.8812 H       1  UNL1        0.1233
     18 C         139.8273  143.4794  165.0757 C.3     1  UNL1        0.0756
     19 C         138.6129  142.6900  164.6856 C.3     1  UNL1        0.0199
     20 C         137.7398  143.8554  165.0452 C.3     1  UNL1        0.0034
     21 C         138.9541  144.6448  165.4353 C.3     1  UNL1        0.0199
@<TRIPOS>BOND
     1    10    11    1
     2    11     4    1
     3     4     5   ar
     4     5     6   ar
     5     6     7   ar
     6     7     8   ar
     7     8     9   ar
     8     9     1    1
     9     1     2    2
    10     1     3   am
    11     3    18    1
    12    18    19    1
    13    19    20    1
    14    20    21    1
    15    12     3    1
    16    12    13    1
    17    13    14    1
    18    14    15    1
    19    15    16    1
    20     9     4   ar
    21    21    18    1
    22    16    12    1
    23    15    17    1
@<TRIPOS>MOLECULE
*****
 21 23 0 0 0
SMALL
GASTEIGER

@<TRIPOS>ATOM
      1 C         139.9661  141.4567  166.5394 C.2     1  UNL1        0.2494
      2 O         140.3617  142.8687  166.2236 O.2     1  UNL1       -0.2699
      3 N         138.9689  140.7457  165.6733 N.am    1  UNL1       -0.2779
      4 C         141.8421  139.9806  167.5649 C.ar    1  UNL1        0.0296
      5 C         142.4436  139.2796  168.7467 C.ar    1  UNL1        0.0063
      6 C         141.7704  139.3538  170.0851 C.ar    1  UNL1        0.0005
      7 C         140.4958  140.1290  170.2416 C.ar    1  UNL1        0.0002
      8 C         139.8943  140.8299  169.0597 C.ar    1  UNL1        0.0050
      9 C         140.5675  140.7557  167.7214 C.ar    1  UNL1        0.0592
     10 C         142.6936  138.5800  165.5490 C.3     1  UNL1        0.0742
     11 S         142.5153  139.9064  166.2264 S.3     1  UNL1       -0.1126
     12 C         138.3675  141.4466  164.4914 C.3     1  UNL1        0.0926
     13 C         138.1808  142.9277  164.3458 C.3     1  UNL1        0.0383
     14 C         137.5451  143.1860  163.0120 C.3     1  UNL1        0.0704
     15 N         137.3388  141.8643  162.3331 N.3     1  UNL1       -0.2960
     16 C         137.8471  140.7893  163.2475 C.3     1  UNL1        0.0887
     17 H         137.8545  141.8429  161.4533 H       1  UNL1        0.1233
     18 C         138.5733  139.3336  165.9891 C.3     1  UNL1        0.0756
     19 C         137.6471  138.6871  166.9762 C.3     1  UNL1        0.0199
     20 C         138.0138  137.3368  166.4358 C.3     1  UNL1        0.0034
     21 C         138.9400  137.9833  165.4487 C.3     1  UNL1        0.0199
@<TRIPOS>BOND
     1    10    11    1
     2    11     4    1
     3     4     5   ar
     4     5     6   ar
     5     6     7   ar
     6     7     8   ar
     7     8     9   ar
     8     9     1    1
     9     1     2    2
    10     1     3   am
    11     3    18    1
    12    18    19    1
    13    19    20    1
    14    20    21    1
    15    12     3    1
    16    12    13    1
    17    13    14    1
    18    14    15    1
    19    15    16    1
    20     9     4   ar
    21    21    18    1
    22    16    12    1
    23    15    17    1
@<TRIPOS>MOLECULE
*****
 21 23 0 0 0
SMALL
GASTEIGER

@<TRIPOS>ATOM
      1 C         142.9412  138.6191  166.3778 C.2     1  UNL1        0.2494
      2 O         144.0978  137.8912  166.9960 O.2     1  UNL1       -0.2699
      3 N         142.1985  139.6556  167.1678 N.am    1  UNL1       -0.2779
      4 C         143.3163  138.8596  163.8182 C.ar    1  UNL1        0.0296
      5 C         142.9023  138.5510  162.4099 C.ar    1  UNL1        0.0063
      6 C         141.6989  137.6933  162.1529 C.ar    1  UNL1        0.0005
      7 C         140.9096  137.1441  163.3042 C.ar    1  UNL1        0.0002
      8 C         141.3236  137.4527  164.7124 C.ar    1  UNL1        0.0050
      9 C         142.5270  138.3104  164.9694 C.ar    1  UNL1        0.0592
     10 C         144.3694  141.2054  164.1904 C.3     1  UNL1        0.0742
     11 S         144.5198  139.7174  164.0752 S.3     1  UNL1       -0.1126
     12 C         142.6126  139.9642  168.5761 C.3     1  UNL1        0.0926
     13 C         143.0900  141.2925  169.0836 C.3     1  UNL1        0.0383
     14 C         143.3944  141.1480  170.5453 C.3     1  UNL1        0.0704
     15 N         143.1052  139.7303  170.9411 N.3     1  UNL1       -0.2960
     16 C         142.6220  138.9987  169.7240 C.3     1  UNL1        0.0887
     17 H         142.3858  139.7127  171.6639 H       1  UNL1        0.1233
     18 C         141.0418  140.3835  166.5495 C.3     1  UNL1        0.0756
     19 C         139.5508  140.2208  166.5740 C.3     1  UNL1        0.0199
     20 C         139.4060  141.4129  165.6751 C.3     1  UNL1        0.0034
     21 C         140.8970  141.5755  165.6506 C.3     1  UNL1        0.0199
@<TRIPOS>BOND
     1    10    11    1
     2    11     4    1
     3     4     5   ar
     4     5     6   ar
     5     6     7   ar
     6     7     8   ar
     7     8     9   ar
     8     9     1    1
     9     1     2    2
    10     1     3   am
    11     3    18    1
    12    18    19    1
    13    19    20    1
    14    20    21    1
    15    12     3    1
    16    12    13    1
    17    13    14    1
    18    14    15    1
    19    15    16    1
    20     9     4   ar
    21    21    18    1
    22    16    12    1
    23    15    17    1
@<TRIPOS>MOLECULE
*****
 21 23 0 0 0
SMALL
GASTEIGER

@<TRIPOS>ATOM
      1 C         141.3065  141.4175  164.8885 C.2     1  UNL1        0.2494
      2 O         142.6857  140.8639  164.6852 O.2     1  UNL1       -0.2699
      3 N         140.9579  142.7762  164.3570 N.am    1  UNL1       -0.2779
      4 C         140.1877  140.6928  167.1186 C.ar    1  UNL1        0.0296
      5 C         139.1572  139.8878  167.8534 C.ar    1  UNL1        0.0063
      6 C         138.2149  139.0024  167.0929 C.ar    1  UNL1        0.0005
      7 C         138.3032  138.9221  165.5977 C.ar    1  UNL1        0.0002
      8 C         139.3337  139.7271  164.8629 C.ar    1  UNL1        0.0050
      9 C         140.2760  140.6124  165.6233 C.ar    1  UNL1        0.0592
     10 C         140.6259  142.8405  168.5133 C.3     1  UNL1        0.0742
     11 S         141.1300  141.5782  167.8790 S.3     1  UNL1       -0.1126
     12 C         141.9884  143.5812  163.6223 C.3     1  UNL1        0.0926
     13 C         143.2000  144.2255  164.2278 C.3     1  UNL1        0.0383
     14 C         143.9487  144.9259  163.1327 C.3     1  UNL1        0.0704
     15 N         143.1996  144.7144  161.8504 N.3     1  UNL1       -0.2960
     16 C         141.9881  143.8833  162.1530 C.3     1  UNL1        0.0887
     17 H         143.7937  144.2284  161.1786 H       1  UNL1        0.1233
     18 C         139.5786  143.3298  164.5604 C.3     1  UNL1        0.0756
     19 C         138.9705  144.3541  165.4720 C.3     1  UNL1        0.0199
     20 C         137.6281  144.1126  164.8478 C.3     1  UNL1        0.0034
     21 C         138.2362  143.0883  163.9362 C.3     1  UNL1        0.0199
@<TRIPOS>BOND
     1    10    11    1
     2    11     4    1
     3     4     5   ar
     4     5     6   ar
     5     6     7   ar
     6     7     8   ar
     7     8     9   ar
     8     9     1    1
     9     1     2    2
    10     1     3   am
    11     3    18    1
    12    18    19    1
    13    19    20    1
    14    20    21    1
    15    12     3    1
    16    12    13    1
    17    13    14    1
    18    14    15    1
    19    15    16    1
    20     9     4   ar
    21    21    18    1
    22    16    12    1
    23    15    17    1
@<TRIPOS>MOLECULE
*****
 21 23 0 0 0
SMALL
GASTEIGER

@<TRIPOS>ATOM
      1 C         140.3779  142.3825  165.1210 C.2     1  UNL1        0.2494
      2 O         139.7457  143.7417  165.0673 O.2     1  UNL1       -0.2699
      3 N         141.7095  142.1485  164.4713 N.am    1  UNL1       -0.2779
      4 C         138.7149  140.3870  165.0733 C.ar    1  UNL1        0.0296
      5 C         138.0155  139.2617  165.7766 C.ar    1  UNL1        0.0063
      6 C         138.2797  139.0068  167.2309 C.ar    1  UNL1        0.0005
      7 C         139.2432  139.8771  167.9820 C.ar    1  UNL1        0.0002
      8 C         139.9426  141.0023  167.2787 C.ar    1  UNL1        0.0050
      9 C         139.6785  141.2573  165.8243 C.ar    1  UNL1        0.0592
     10 C         137.3191  141.5366  163.2077 C.3     1  UNL1        0.0742
     11 S         138.4507  140.6419  163.6188 S.3     1  UNL1       -0.1126
     12 C         142.4089  143.2737  163.7679 C.3     1  UNL1        0.0926
     13 C         143.5248  144.1053  164.3277 C.3     1  UNL1        0.0383
     14 C         143.9208  145.1104  163.2871 C.3     1  UNL1        0.0704
     15 N         143.0496  144.9001  162.0842 N.3     1  UNL1       -0.2960
     16 C         142.1152  143.7650  162.3814 C.3     1  UNL1        0.0887
     17 H         143.6265  144.6707  161.2748 H       1  UNL1        0.1233
     18 C         142.3416  140.7893  164.5249 C.3     1  UNL1        0.0756
     19 C         143.1969  140.0555  165.5150 C.3     1  UNL1        0.0199
     20 C         143.2356  138.8670  164.6008 C.3     1  UNL1        0.0034
     21 C         142.3804  139.6007  163.6107 C.3     1  UNL1        0.0199
@<TRIPOS>BOND
     1    10    11    1
     2    11     4    1
     3     4     5   ar
     4     5     6   ar
     5     6     7   ar
     6     7     8   ar
     7     8     9   ar
     8     9     1    1
     9     1     2    2
    10     1     3   am
    11     3    18    1
    12    18    19    1
    13    19    20    1
    14    20    21    1
    15    12     3    1
    16    12    13    1
    17    13    14    1
    18    14    15    1
    19    15    16    1
    20     9     4   ar
    21    21    18    1
    22    16    12    1
    23    15    17    1
@<TRIPOS>MOLECULE
*****
 21 23 0 0 0
SMALL
GASTEIGER

@<TRIPOS>ATOM
      1 C         141.2821  141.0890  164.8388 C.2     1  UNL1        0.2494
      2 O         142.6064  140.4268  164.5985 O.2     1  UNL1       -0.2699
      3 N         141.0113  142.4515  164.2728 N.am    1  UNL1       -0.2779
      4 C         139.2357  139.4933  164.9652 C.ar    1  UNL1        0.0296
      5 C         138.1823  138.7931  165.7713 C.ar    1  UNL1        0.0063
      6 C         138.1218  138.9884  167.2572 C.ar    1  UNL1        0.0005
      7 C         139.1147  139.8839  167.9371 C.ar    1  UNL1        0.0002
      8 C         140.1681  140.5841  167.1309 C.ar    1  UNL1        0.0050
      9 C         140.2287  140.3888  165.6450 C.ar    1  UNL1        0.0592
     10 C         139.0168  137.9479  162.8881 C.3     1  UNL1        0.0742
     11 S         139.2963  139.2980  163.4791 S.3     1  UNL1       -0.1126
     12 C         142.0647  143.1517  163.4666 C.3     1  UNL1        0.0926
     13 C         143.2554  143.8806  164.0152 C.3     1  UNL1        0.0383
     14 C         144.0390  144.4254  162.8579 C.3     1  UNL1        0.0704
     15 N         143.3325  144.0332  161.5941 N.3     1  UNL1       -0.2960
     16 C         142.1124  143.2460  161.9703 C.3     1  UNL1        0.0887
     17 H         143.9487  143.4615  161.0162 H       1  UNL1        0.1233
     18 C         139.6870  143.1137  164.5131 C.3     1  UNL1        0.0756
     19 C         138.3125  142.9804  163.9273 C.3     1  UNL1        0.0199
     20 C         137.8142  144.0503  164.8529 C.3     1  UNL1        0.0034
     21 C         139.1886  144.1837  165.4387 C.3     1  UNL1        0.0199
@<TRIPOS>BOND
     1    10    11    1
     2    11     4    1
     3     4     5   ar
     4     5     6   ar
     5     6     7   ar
     6     7     8   ar
     7     8     9   ar
     8     9     1    1
     9     1     2    2
    10     1     3   am
    11     3    18    1
    12    18    19    1
    13    19    20    1
    14    20    21    1
    15    12     3    1
    16    12    13    1
    17    13    14    1
    18    14    15    1
    19    15    16    1
    20     9     4   ar
    21    21    18    1
    22    16    12    1
    23    15    17    1
@<TRIPOS>MOLECULE
*****
 21 23 0 0 0
SMALL
GASTEIGER

@<TRIPOS>ATOM
      1 C         138.5440  141.5218  163.1824 C.2     1  UNL1        0.2494
      2 O         137.3061  141.9302  162.4404 O.2     1  UNL1       -0.2699
      3 N         139.7501  142.4136  163.1771 N.am    1  UNL1       -0.2779
      4 C         138.9756  138.9602  163.2234 C.ar    1  UNL1        0.0296
      5 C         139.0075  137.6600  163.9706 C.ar    1  UNL1        0.0063
      6 C         138.6397  137.6213  165.4243 C.ar    1  UNL1        0.0005
      7 C         138.2400  138.8827  166.1307 C.ar    1  UNL1        0.0002
      8 C         138.2081  140.1829  165.3834 C.ar    1  UNL1        0.0050
      9 C         138.5759  140.2216  163.9298 C.ar    1  UNL1        0.0592
     10 C         140.6480  138.4182  161.3103 C.3     1  UNL1        0.0742
     11 S         139.3435  138.9989  161.7696 S.3     1  UNL1       -0.1126
     12 C         139.7183  143.7138  162.4298 C.3     1  UNL1        0.0926
     13 C         139.6168  145.0798  163.0411 C.3     1  UNL1        0.0383
     14 C         139.6181  146.0865  161.9291 C.3     1  UNL1        0.0704
     15 N         139.7205  145.3426  160.6305 N.3     1  UNL1       -0.2960
     16 C         139.7824  143.8762  160.9400 C.3     1  UNL1        0.0887
     17 H         140.5647  145.6276  160.1340 H       1  UNL1        0.1233
     18 C         140.9882  142.0051  163.9191 C.3     1  UNL1        0.0756
     19 C         141.6028  142.3689  165.2382 C.3     1  UNL1        0.0199
     20 C         142.7389  141.4275  164.9684 C.3     1  UNL1        0.0034
     21 C         142.1243  141.0637  163.6494 C.3     1  UNL1        0.0199
@<TRIPOS>BOND
     1    10    11    1
     2    11     4    1
     3     4     5   ar
     4     5     6   ar
     5     6     7   ar
     6     7     8   ar
     7     8     9   ar
     8     9     1    1
     9     1     2    2
    10     1     3   am
    11     3    18    1
    12    18    19    1
    13    19    20    1
    14    20    21    1
    15    12     3    1
    16    12    13    1
    17    13    14    1
    18    14    15    1
    19    15    16    1
    20     9     4   ar
    21    21    18    1
    22    16    12    1
    23    15    17    1
@<TRIPOS>MOLECULE
*****
 21 23 0 0 0
SMALL
GASTEIGER

@<TRIPOS>ATOM
      1 C         138.9970  139.7167  166.6539 C.2     1  UNL1        0.2494
      2 O         138.1476  138.9025  167.5841 O.2     1  UNL1       -0.2699
      3 N         140.2078  140.4319  167.1760 N.am    1  UNL1       -0.2779
      4 C         139.0264  138.7196  164.2549 C.ar    1  UNL1        0.0296
      5 C         138.6651  138.8186  162.8024 C.ar    1  UNL1        0.0063
      6 C         137.9133  140.0138  162.2964 C.ar    1  UNL1        0.0005
      7 C         137.5227  141.1100  163.2429 C.ar    1  UNL1        0.0002
      8 C         137.8839  141.0110  164.6953 C.ar    1  UNL1        0.0050
      9 C         138.6357  139.8158  165.2013 C.ar    1  UNL1        0.0592
     10 C         141.2508  137.4005  164.5038 C.3     1  UNL1        0.0742
     11 S         139.7782  137.5243  164.7610 S.3     1  UNL1       -0.1126
     12 C         140.5690  140.3328  168.6284 C.3     1  UNL1        0.0926
     13 C         139.8211  140.9593  169.7677 C.3     1  UNL1        0.0383
     14 C         140.5315  140.6036  171.0400 C.3     1  UNL1        0.0704
     15 N         141.7186  139.7572  170.6871 N.3     1  UNL1       -0.2960
     16 C         141.7418  139.5899  169.1966 C.3     1  UNL1        0.0887
     17 H         141.6393  138.8451  171.1366 H       1  UNL1        0.1233
     18 C         141.0572  141.2461  166.2456 C.3     1  UNL1        0.0756
     19 C         141.0949  142.6872  165.8311 C.3     1  UNL1        0.0199
     20 C         142.2585  142.3975  164.9299 C.3     1  UNL1        0.0034
     21 C         142.2208  140.9564  165.3445 C.3     1  UNL1        0.0199
@<TRIPOS>BOND
     1    10    11    1
     2    11     4    1
     3     4     5   ar
     4     5     6   ar
     5     6     7   ar
     6     7     8   ar
     7     8     9   ar
     8     9     1    1
     9     1     2    2
    10     1     3   am
    11     3    18    1
    12    18    19    1
    13    19    20    1
    14    20    21    1
    15    12     3    1
    16    12    13    1
    17    13    14    1
    18    14    15    1
    19    15    16    1
    20     9     4   ar
    21    21    18    1
    22    16    12    1
    23    15    17    1
@<TRIPOS>MOLECULE
*****
 21 23 0 0 0
SMALL
GASTEIGER

@<TRIPOS>ATOM
      1 C         139.8952  141.8494  166.5385 C.2     1  UNL1        0.2494
      2 O         140.3511  143.0023  167.3829 O.2     1  UNL1       -0.2699
      3 N         139.8035  140.4750  167.1323 N.am    1  UNL1       -0.2779
      4 C         140.5974  142.0555  164.0456 C.ar    1  UNL1        0.0296
      5 C         140.2332  142.2770  162.6075 C.ar    1  UNL1        0.0063
      6 C         138.8026  142.5139  162.2241 C.ar    1  UNL1        0.0005
      7 C         137.7361  142.5293  163.2788 C.ar    1  UNL1        0.0002
      8 C         138.1003  142.3078  164.7169 C.ar    1  UNL1        0.0050
      9 C         139.5309  142.0709  165.1003 C.ar    1  UNL1        0.0592
     10 C         142.9677  142.9789  164.5739 C.3     1  UNL1        0.0742
     11 S         142.0281  141.8186  164.4291 S.3     1  UNL1       -0.1126
     12 C         140.1677  140.2534  168.5704 C.3     1  UNL1        0.0926
     13 C         141.5458  139.9888  169.1002 C.3     1  UNL1        0.0383
     14 C         141.4476  139.8294  170.5884 C.3     1  UNL1        0.0704
     15 N         140.0088  139.9956  170.9785 N.3     1  UNL1       -0.2960
     16 C         139.2178  140.2577  169.7313 C.3     1  UNL1        0.0887
     17 H         139.9129  140.7821  171.6209 H       1  UNL1        0.1233
     18 C         139.3476  139.3221  166.2879 C.3     1  UNL1        0.0756
     19 C         139.9503  138.5208  165.1722 C.3     1  UNL1        0.0199
     20 C         138.7027  137.6916  165.0937 C.3     1  UNL1        0.0034
     21 C         138.1000  138.4929  166.2094 C.3     1  UNL1        0.0199
@<TRIPOS>BOND
     1    10    11    1
     2    11     4    1
     3     4     5   ar
     4     5     6   ar
     5     6     7   ar
     6     7     8   ar
     7     8     9   ar
     8     9     1    1
     9     1     2    2
    10     1     3   am
    11     3    18    1
    12    18    19    1
    13    19    20    1
    14    20    21    1
    15    12     3    1
    16    12    13    1
    17    13    14    1
    18    14    15    1
    19    15    16    1
    20     9     4   ar
    21    21    18    1
    22    16    12    1
    23    15    17    1
