@<TRIPOS>MOLECULE
*****
 32 35 0 0 0
SMALL
GASTEIGER

@<TRIPOS>ATOM
      1 C         141.6203  138.4397  165.0112 C.ar    1  UNL1        0.1488
      2 C         141.1782  137.0962  164.5118 C.ar    1  UNL1        0.0390
      3 C         140.0084  136.9907  163.5788 C.ar    1  UNL1        0.0417
      4 C         139.2808  138.2287  163.1453 C.ar    1  UNL1        0.1640
      5 N         138.1022  138.4353  162.2406 N.ar    1  UNL1       -0.2234
      6 C         137.8160  139.9065  162.1809 C.ar    1  UNL1        0.1197
      7 C         138.8177  140.6091  163.0487 C.ar    1  UNL1        0.1036
      8 N         139.7229  139.5721  163.6447 N.ar    1  UNL1       -0.2096
      9 N         140.8927  139.6777  164.5777 N.ar    1  UNL1       -0.1489
     10 C         138.8997  142.0889  163.2799 C.ar    1  UNL1        0.0192
     11 C         137.6469  142.9131  163.3149 C.ar    1  UNL1        0.0015
     12 C         137.7290  144.3929  163.5461 C.ar    1  UNL1       -0.0000
     13 C         139.0637  145.0486  163.7423 C.ar    1  UNL1        0.0039
     14 C         140.3165  144.2243  163.7073 C.ar    1  UNL1        0.0715
     15 C         140.2345  142.7445  163.4761 C.ar    1  UNL1        0.0054
     16 C         141.6514  144.8799  163.9036 C.3     1  UNL1        0.4186
     17 F         142.9862  145.5355  164.0999 F       1  UNL1       -0.1659
     18 F         142.0480  143.7882  164.8526 F       1  UNL1       -0.1659
     19 F         141.2547  145.9717  162.9545 F       1  UNL1       -0.1659
     20 N         142.7901  138.5452  165.9442 N.pl3   1  UNL1       -0.3184
     21 H         143.5268  137.8948  165.8855 H       1  UNL1        0.1482
     22 C         142.9323  141.8350  169.0113 C.3     1  UNL1        0.0248
     23 C         143.1383  142.1533  167.5600 C.3     1  UNL1        0.0040
     24 C         143.0909  141.0567  166.5376 C.3     1  UNL1        0.0196
     25 C         142.8375  139.6418  166.9665 C.3     1  UNL1        0.0704
     26 C         142.6315  139.3236  168.4179 C.3     1  UNL1        0.0196
     27 C         142.6789  140.4201  169.4402 C.3     1  UNL1        0.0040
     28 C         144.4646  142.7564  170.1526 C.3     1  UNL1        0.0293
     29 C         142.9797  142.9316  170.0336 C.3     1  UNL1        0.0884
     30 C         141.4947  143.1067  169.9146 C.3     1  UNL1        0.0293
     31 O         143.0270  144.0282  171.0560 O.3     1  UNL1       -0.3867
     32 H         143.9426  144.1578  171.3490 H       1  UNL1        0.2102
@<TRIPOS>BOND
     1    28    29    1
     2    29    30    1
     3    29    31    1
     4    22    29    1
     5    22    23    1
     6    23    24    1
     7    24    25    1
     8    25    20    1
     9    20     1    1
    10     1     2   ar
    11     2     3   ar
    12     3     4   ar
    13     4     5   ar
    14     5     6   ar
    15     6     7   ar
    16     7    10    1
    17    10    11   ar
    18    11    12   ar
    19    12    13   ar
    20    13    14   ar
    21    14    16    1
    22    16    17    1
    23    16    18    1
    24    16    19    1
    25    14    15   ar
    26     7     8   ar
    27     8     9   ar
    28    25    26    1
    29    26    27    1
    30    27    22    1
    31     9     1   ar
    32     8     4   ar
    33    15    10   ar
    34    31    32    1
    35    20    21    1
@<TRIPOS>MOLECULE
*****
 32 35 0 0 0
SMALL
GASTEIGER

@<TRIPOS>ATOM
      1 C         139.4272  138.8891  165.4789 C.ar    1  UNL1        0.1488
      2 C         138.7740  137.7303  164.7858 C.ar    1  UNL1        0.0390
      3 C         139.3381  137.2131  163.4958 C.ar    1  UNL1        0.0417
      4 C         140.5555  137.8547  162.8989 C.ar    1  UNL1        0.1640
      5 N         141.3319  137.5649  161.6485 N.ar    1  UNL1       -0.2234
      6 C         142.4650  138.5446  161.5689 C.ar    1  UNL1        0.1197
      7 C         142.3888  139.4399  162.7700 C.ar    1  UNL1        0.1036
      8 N         141.2088  139.0135  163.5920 N.ar    1  UNL1       -0.2096
      9 N         140.6446  139.5307  164.8820 N.ar    1  UNL1       -0.1489
     10 C         143.3279  140.5642  163.0926 C.ar    1  UNL1        0.0192
     11 C         144.8036  140.3082  163.1765 C.ar    1  UNL1        0.0015
     12 C         145.7426  141.4325  163.4990 C.ar    1  UNL1       -0.0000
     13 C         145.2062  142.8128  163.7377 C.ar    1  UNL1        0.0039
     14 C         143.7306  143.0688  163.6539 C.ar    1  UNL1        0.0715
     15 C         142.7915  141.9445  163.3313 C.ar    1  UNL1        0.0054
     16 C         143.1940  144.4491  163.8926 C.3     1  UNL1        0.4186
     17 F         142.6576  145.8294  164.1312 F       1  UNL1       -0.1659
     18 F         144.2392  145.0137  162.9766 F       1  UNL1       -0.1659
     19 F         142.1489  143.8845  164.8085 F       1  UNL1       -0.1659
     20 N         138.8630  139.4064  166.7689 N.pl3   1  UNL1       -0.3184
     21 H         137.9680  139.1217  167.0640 H       1  UNL1        0.1482
     22 C         141.2616  142.2596  169.2901 C.3     1  UNL1        0.0248
     23 C         140.9332  140.8920  169.8115 C.3     1  UNL1        0.0040
     24 C         140.1337  139.9409  168.9711 C.3     1  UNL1        0.0196
     25 C         139.6625  140.3574  167.6093 C.3     1  UNL1        0.0704
     26 C         139.9909  141.7251  167.0879 C.3     1  UNL1        0.0196
     27 C         140.7904  142.6761  167.9283 C.3     1  UNL1        0.0040
     28 C         140.8785  144.1294  170.2157 C.3     1  UNL1        0.0293
     29 C         142.0611  143.2106  170.1305 C.3     1  UNL1        0.0884
     30 C         143.2436  142.2918  170.0453 C.3     1  UNL1        0.0293
     31 O         142.8607  144.1617  170.9709 O.3     1  UNL1       -0.3867
     32 H         142.3120  144.9269  171.2040 H       1  UNL1        0.2102
@<TRIPOS>BOND
     1    28    29    1
     2    29    30    1
     3    29    31    1
     4    22    29    1
     5    22    23    1
     6    23    24    1
     7    24    25    1
     8    25    20    1
     9    20     1    1
    10     1     2   ar
    11     2     3   ar
    12     3     4   ar
    13     4     5   ar
    14     5     6   ar
    15     6     7   ar
    16     7    10    1
    17    10    11   ar
    18    11    12   ar
    19    12    13   ar
    20    13    14   ar
    21    14    16    1
    22    16    17    1
    23    16    18    1
    24    16    19    1
    25    14    15   ar
    26     7     8   ar
    27     8     9   ar
    28    25    26    1
    29    26    27    1
    30    27    22    1
    31     9     1   ar
    32     8     4   ar
    33    15    10   ar
    34    31    32    1
    35    20    21    1
@<TRIPOS>MOLECULE
*****
 32 35 0 0 0
SMALL
GASTEIGER

@<TRIPOS>ATOM
      1 C         139.2227  139.8916  168.0640 C.ar    1  UNL1        0.1488
      2 C         138.9928  140.0847  169.5336 C.ar    1  UNL1        0.0390
      3 C         139.9946  140.8389  170.3567 C.ar    1  UNL1        0.0417
      4 C         141.2264  141.3999  169.7102 C.ar    1  UNL1        0.1640
      5 N         142.3818  142.1818  170.2614 N.ar    1  UNL1       -0.2234
      6 C         143.3258  142.4719  169.1324 C.ar    1  UNL1        0.1197
      7 C         142.7538  141.8693  167.8835 C.ar    1  UNL1        0.1036
      8 N         141.4563  141.2068  168.2406 N.ar    1  UNL1       -0.2096
      9 N         140.4545  140.4526  167.4175 N.ar    1  UNL1       -0.1489
     10 C         143.3710  141.9202  166.5173 C.ar    1  UNL1        0.0192
     11 C         143.9594  143.2024  166.0075 C.ar    1  UNL1        0.0015
     12 C         144.5766  143.2533  164.6413 C.ar    1  UNL1       -0.0000
     13 C         144.6054  142.0222  163.7849 C.ar    1  UNL1        0.0039
     14 C         144.0170  140.7400  164.2947 C.ar    1  UNL1        0.0715
     15 C         143.3998  140.6891  165.6609 C.ar    1  UNL1        0.0054
     16 C         144.0458  139.5088  163.4383 C.3     1  UNL1        0.4186
     17 F         144.0745  138.2776  162.5820 F       1  UNL1       -0.1659
     18 F         142.7845  139.9523  162.7584 F       1  UNL1       -0.1659
     19 F         145.3071  139.0653  164.1183 F       1  UNL1       -0.1659
     20 N         138.2209  139.1374  167.2409 N.pl3   1  UNL1       -0.3184
     21 H         137.4428  138.7184  167.6747 H       1  UNL1        0.1482
     22 C         138.7718  138.7902  162.7883 C.3     1  UNL1        0.0248
     23 C         139.1026  137.6286  163.6777 C.3     1  UNL1        0.0040
     24 C         138.9190  137.7443  165.1620 C.3     1  UNL1        0.0196
     25 C         138.4045  139.0217  165.7567 C.3     1  UNL1        0.0704
     26 C         138.0737  140.1833  164.8672 C.3     1  UNL1        0.0196
     27 C         138.2574  140.0676  163.3830 C.3     1  UNL1        0.0040
     28 C         140.3043  138.0545  161.5193 C.3     1  UNL1        0.0293
     29 C         138.9555  138.6745  161.3041 C.3     1  UNL1        0.0884
     30 C         137.6067  139.2944  161.0888 C.3     1  UNL1        0.0293
     31 O         139.1391  138.5588  159.8198 O.3     1  UNL1       -0.3867
     32 H         140.0011  138.1558  159.6311 H       1  UNL1        0.2102
@<TRIPOS>BOND
     1    28    29    1
     2    29    30    1
     3    29    31    1
     4    22    29    1
     5    22    23    1
     6    23    24    1
     7    24    25    1
     8    25    20    1
     9    20     1    1
    10     1     2   ar
    11     2     3   ar
    12     3     4   ar
    13     4     5   ar
    14     5     6   ar
    15     6     7   ar
    16     7    10    1
    17    10    11   ar
    18    11    12   ar
    19    12    13   ar
    20    13    14   ar
    21    14    16    1
    22    16    17    1
    23    16    18    1
    24    16    19    1
    25    14    15   ar
    26     7     8   ar
    27     8     9   ar
    28    25    26    1
    29    26    27    1
    30    27    22    1
    31     9     1   ar
    32     8     4   ar
    33    15    10   ar
    34    31    32    1
    35    20    21    1
@<TRIPOS>MOLECULE
*****
 32 35 0 0 0
SMALL
GASTEIGER

@<TRIPOS>ATOM
      1 C         141.9624  138.6878  164.6241 C.ar    1  UNL1        0.1488
      2 C         141.6034  137.2619  164.3274 C.ar    1  UNL1        0.0390
      3 C         140.4194  136.9515  163.4604 C.ar    1  UNL1        0.0417
      4 C         139.5943  138.0669  162.8902 C.ar    1  UNL1        0.1640
      5 N         138.3802  138.0682  162.0093 N.ar    1  UNL1       -0.2234
      6 C         137.9888  139.4948  161.7617 C.ar    1  UNL1        0.1197
      7 C         138.9610  140.3752  162.4894 C.ar    1  UNL1        0.1036
      8 N         139.9533  139.4927  163.1869 N.ar    1  UNL1       -0.2096
      9 N         141.1373  139.8032  164.0539 N.ar    1  UNL1       -0.1489
     10 C         138.9440  141.8749  162.5152 C.ar    1  UNL1        0.0192
     11 C         139.1342  142.6491  161.2446 C.ar    1  UNL1        0.0015
     12 C         139.1172  144.1488  161.2704 C.ar    1  UNL1       -0.0000
     13 C         138.9099  144.8743  162.5668 C.ar    1  UNL1        0.0039
     14 C         138.7197  144.1001  163.8374 C.ar    1  UNL1        0.0715
     15 C         138.7367  142.6005  163.8116 C.ar    1  UNL1        0.0054
     16 C         138.5124  144.8257  165.1339 C.3     1  UNL1        0.4186
     17 F         138.3051  145.5511  166.4303 F       1  UNL1       -0.1659
     18 F         137.0592  144.4548  165.1090 F       1  UNL1       -0.1659
     19 F         139.9656  145.1965  165.1587 F       1  UNL1       -0.1659
     20 N         143.1465  138.9983  165.4911 N.pl3   1  UNL1       -0.3184
     21 H         144.0507  138.7389  165.2007 H       1  UNL1        0.1482
     22 C         142.5655  141.1153  169.4193 C.3     1  UNL1        0.0248
     23 C         142.5564  139.6163  169.3667 C.3     1  UNL1        0.0040
     24 C         142.7501  138.9106  168.0572 C.3     1  UNL1        0.0196
     25 C         142.9528  139.7039  166.8005 C.3     1  UNL1        0.0704
     26 C         142.9619  141.2030  166.8531 C.3     1  UNL1        0.0196
     27 C         142.7683  141.9087  168.1625 C.3     1  UNL1        0.0040
     28 C         143.3503  142.8759  170.3048 C.3     1  UNL1        0.0293
     29 C         142.3718  141.8210  170.7286 C.3     1  UNL1        0.0884
     30 C         141.3934  140.7661  171.1524 C.3     1  UNL1        0.0293
     31 O         142.1782  142.5267  172.0381 O.3     1  UNL1       -0.3867
     32 H         142.7330  143.3220  172.0620 H       1  UNL1        0.2102
@<TRIPOS>BOND
     1    28    29    1
     2    29    30    1
     3    29    31    1
     4    22    29    1
     5    22    23    1
     6    23    24    1
     7    24    25    1
     8    25    20    1
     9    20     1    1
    10     1     2   ar
    11     2     3   ar
    12     3     4   ar
    13     4     5   ar
    14     5     6   ar
    15     6     7   ar
    16     7    10    1
    17    10    11   ar
    18    11    12   ar
    19    12    13   ar
    20    13    14   ar
    21    14    16    1
    22    16    17    1
    23    16    18    1
    24    16    19    1
    25    14    15   ar
    26     7     8   ar
    27     8     9   ar
    28    25    26    1
    29    26    27    1
    30    27    22    1
    31     9     1   ar
    32     8     4   ar
    33    15    10   ar
    34    31    32    1
    35    20    21    1
@<TRIPOS>MOLECULE
*****
 32 35 0 0 0
SMALL
GASTEIGER

@<TRIPOS>ATOM
      1 C         142.5970  139.7107  164.5064 C.ar    1  UNL1        0.1488
      2 C         143.9458  139.1282  164.2043 C.ar    1  UNL1        0.0390
      3 C         144.8465  139.7985  163.2097 C.ar    1  UNL1        0.0417
      4 C         144.3985  141.0513  162.5172 C.ar    1  UNL1        0.1640
      5 N         145.0639  141.9273  161.4974 N.ar    1  UNL1       -0.2234
      6 C         144.1264  143.0512  161.1692 C.ar    1  UNL1        0.1197
      7 C         142.8815  142.8699  161.9862 C.ar    1  UNL1        0.1036
      8 N         143.0497  141.6339  162.8193 N.ar    1  UNL1       -0.2096
      9 N         142.1489  140.9636  163.8139 N.ar    1  UNL1       -0.1489
     10 C         141.6794  143.7670  161.9725 C.ar    1  UNL1        0.0192
     11 C         141.5088  144.7757  160.8755 C.ar    1  UNL1        0.0015
     12 C         140.3068  145.6729  160.8619 C.ar    1  UNL1       -0.0000
     13 C         139.2753  145.5614  161.9451 C.ar    1  UNL1        0.0039
     14 C         139.4459  144.5527  163.0421 C.ar    1  UNL1        0.0715
     15 C         140.6480  143.6556  163.0558 C.ar    1  UNL1        0.0054
     16 C         138.4144  144.4412  164.1255 C.3     1  UNL1        0.4186
     17 F         137.3829  144.3296  165.2088 F       1  UNL1       -0.1659
     18 F         137.5045  143.7097  163.1838 F       1  UNL1       -0.1659
     19 F         139.3244  145.1726  165.0673 F       1  UNL1       -0.1659
     20 N         141.6961  139.0404  165.5011 N.pl3   1  UNL1       -0.3184
     21 H         141.2549  138.1909  165.2713 H       1  UNL1        0.1482
     22 C         141.0105  140.9128  169.5352 C.3     1  UNL1        0.0248
     23 C         139.9037  140.8854  168.5232 C.3     1  UNL1        0.0040
     24 C         140.1322  140.2612  167.1785 C.3     1  UNL1        0.0196
     25 C         141.4676  139.6646  166.8457 C.3     1  UNL1        0.0704
     26 C         142.5745  139.6921  167.8578 C.3     1  UNL1        0.0196
     27 C         142.3459  140.3162  169.2024 C.3     1  UNL1        0.0040
     28 C         141.9650  140.7939  171.4258 C.3     1  UNL1        0.0293
     29 C         140.7820  141.5370  170.8798 C.3     1  UNL1        0.0884
     30 C         139.5989  142.2800  170.3339 C.3     1  UNL1        0.0293
     31 O         140.5533  142.1612  172.2246 O.3     1  UNL1       -0.3867
     32 H         141.2254  141.8427  172.8473 H       1  UNL1        0.2102
@<TRIPOS>BOND
     1    28    29    1
     2    29    30    1
     3    29    31    1
     4    22    29    1
     5    22    23    1
     6    23    24    1
     7    24    25    1
     8    25    20    1
     9    20     1    1
    10     1     2   ar
    11     2     3   ar
    12     3     4   ar
    13     4     5   ar
    14     5     6   ar
    15     6     7   ar
    16     7    10    1
    17    10    11   ar
    18    11    12   ar
    19    12    13   ar
    20    13    14   ar
    21    14    16    1
    22    16    17    1
    23    16    18    1
    24    16    19    1
    25    14    15   ar
    26     7     8   ar
    27     8     9   ar
    28    25    26    1
    29    26    27    1
    30    27    22    1
    31     9     1   ar
    32     8     4   ar
    33    15    10   ar
    34    31    32    1
    35    20    21    1
@<TRIPOS>MOLECULE
*****
 32 35 0 0 0
SMALL
GASTEIGER

@<TRIPOS>ATOM
      1 C         139.6890  138.6081  160.2873 C.ar    1  UNL1        0.1488
      2 C         139.6147  138.4082  158.8026 C.ar    1  UNL1        0.0390
      3 C         140.7373  138.8779  157.9255 C.ar    1  UNL1        0.0417
      4 C         141.9341  139.5475  158.5332 C.ar    1  UNL1        0.1640
      5 N         143.1847  140.1113  157.9264 N.ar    1  UNL1       -0.2234
      6 C         144.0318  140.6597  159.0361 C.ar    1  UNL1        0.1197
      7 C         143.3048  140.4348  160.3288 C.ar    1  UNL1        0.1036
      8 N         142.0083  139.7474  160.0179 N.ar    1  UNL1       -0.2096
      9 N         140.8858  139.2777  160.8950 N.ar    1  UNL1       -0.1489
     10 C         143.7892  140.8281  161.6928 C.ar    1  UNL1        0.0192
     11 C         144.3953  139.7982  162.5994 C.ar    1  UNL1        0.0015
     12 C         144.8797  140.1915  163.9634 C.ar    1  UNL1       -0.0000
     13 C         144.7581  141.6148  164.4209 C.ar    1  UNL1        0.0039
     14 C         144.1521  142.6448  163.5143 C.ar    1  UNL1        0.0715
     15 C         143.6677  142.2514  162.1503 C.ar    1  UNL1        0.0054
     16 C         144.0305  144.0683  163.9718 C.3     1  UNL1        0.4186
     17 F         143.9088  145.4916  164.4293 F       1  UNL1       -0.1659
     18 F         143.6548  143.5949  165.3447 F       1  UNL1       -0.1659
     19 F         144.4061  144.5416  162.5989 F       1  UNL1       -0.1659
     20 N         138.5665  138.1384  161.1644 N.pl3   1  UNL1       -0.3184
     21 H         137.8118  137.6410  160.7741 H       1  UNL1        0.1482
     22 C         138.6484  139.0024  165.5799 C.3     1  UNL1        0.0248
     23 C         139.0820  137.6599  165.0703 C.3     1  UNL1        0.0040
     24 C         139.0547  137.3719  163.5984 C.3     1  UNL1        0.0196
     25 C         138.5938  138.4263  162.6362 C.3     1  UNL1        0.0704
     26 C         138.1602  139.7688  163.1460 C.3     1  UNL1        0.0196
     27 C         138.1876  140.0568  164.6178 C.3     1  UNL1        0.0040
     28 C         137.5163  138.3608  167.2552 C.3     1  UNL1        0.0293
     29 C         138.6758  139.2903  167.0517 C.3     1  UNL1        0.0884
     30 C         139.8353  140.2199  166.8483 C.3     1  UNL1        0.0293
     31 O         138.7032  139.5784  168.5236 O.3     1  UNL1       -0.3867
     32 H         138.0021  139.0737  168.9649 H       1  UNL1        0.2102
@<TRIPOS>BOND
     1    28    29    1
     2    29    30    1
     3    29    31    1
     4    22    29    1
     5    22    23    1
     6    23    24    1
     7    24    25    1
     8    25    20    1
     9    20     1    1
    10     1     2   ar
    11     2     3   ar
    12     3     4   ar
    13     4     5   ar
    14     5     6   ar
    15     6     7   ar
    16     7    10    1
    17    10    11   ar
    18    11    12   ar
    19    12    13   ar
    20    13    14   ar
    21    14    16    1
    22    16    17    1
    23    16    18    1
    24    16    19    1
    25    14    15   ar
    26     7     8   ar
    27     8     9   ar
    28    25    26    1
    29    26    27    1
    30    27    22    1
    31     9     1   ar
    32     8     4   ar
    33    15    10   ar
    34    31    32    1
    35    20    21    1
@<TRIPOS>MOLECULE
*****
 32 35 0 0 0
SMALL
GASTEIGER

@<TRIPOS>ATOM
      1 C         139.2091  139.8102  168.0822 C.ar    1  UNL1        0.1488
      2 C         138.9997  140.0246  169.5520 C.ar    1  UNL1        0.0390
      3 C         140.0148  140.7871  170.3507 C.ar    1  UNL1        0.0417
      4 C         141.2393  141.3352  169.6798 C.ar    1  UNL1        0.1640
      5 N         142.4044  142.1212  170.2043 N.ar    1  UNL1       -0.2234
      6 C         143.3338  142.3925  169.0586 C.ar    1  UNL1        0.1197
      7 C         142.7431  141.7743  167.8261 C.ar    1  UNL1        0.1036
      8 N         141.4487  141.1209  168.2101 N.ar    1  UNL1       -0.2096
      9 N         140.4336  140.3584  167.4113 N.ar    1  UNL1       -0.1489
     10 C         143.3418  141.8043  166.4511 C.ar    1  UNL1        0.0192
     11 C         143.8181  140.5332  165.8126 C.ar    1  UNL1        0.0015
     12 C         144.4168  140.5632  164.4376 C.ar    1  UNL1       -0.0000
     13 C         144.5392  141.8641  163.7010 C.ar    1  UNL1        0.0039
     14 C         144.0629  143.1351  164.3395 C.ar    1  UNL1        0.0715
     15 C         143.4643  143.1052  165.7145 C.ar    1  UNL1        0.0054
     16 C         144.1854  144.4362  163.6030 C.3     1  UNL1        0.4186
     17 F         144.3077  145.7371  162.8664 F       1  UNL1       -0.1659
     18 F         144.1530  143.6996  162.2967 F       1  UNL1       -0.1659
     19 F         144.2177  145.1727  164.9093 F       1  UNL1       -0.1659
     20 N         138.1940  139.0477  167.2834 N.pl3   1  UNL1       -0.3184
     21 H         137.4362  138.6128  167.7371 H       1  UNL1        0.1482
     22 C         138.6123  138.7480  162.8129 C.3     1  UNL1        0.0248
     23 C         138.9676  137.5765  163.6796 C.3     1  UNL1        0.0040
     24 C         138.8282  137.6763  165.1698 C.3     1  UNL1        0.0196
     25 C         138.3334  138.9478  165.7932 C.3     1  UNL1        0.0704
     26 C         137.9782  140.1194  164.9264 C.3     1  UNL1        0.0196
     27 C         138.1176  140.0195  163.4363 C.3     1  UNL1        0.0040
     28 C         140.0614  137.9368  161.4930 C.3     1  UNL1        0.0293
     29 C         138.7518  138.6481  161.3228 C.3     1  UNL1        0.0884
     30 C         137.4422  139.3594  161.1525 C.3     1  UNL1        0.0293
     31 O         138.8912  138.5483  159.8325 O.3     1  UNL1       -0.3867
     32 H         139.7197  138.0930  159.6151 H       1  UNL1        0.2102
@<TRIPOS>BOND
     1    28    29    1
     2    29    30    1
     3    29    31    1
     4    22    29    1
     5    22    23    1
     6    23    24    1
     7    24    25    1
     8    25    20    1
     9    20     1    1
    10     1     2   ar
    11     2     3   ar
    12     3     4   ar
    13     4     5   ar
    14     5     6   ar
    15     6     7   ar
    16     7    10    1
    17    10    11   ar
    18    11    12   ar
    19    12    13   ar
    20    13    14   ar
    21    14    16    1
    22    16    17    1
    23    16    18    1
    24    16    19    1
    25    14    15   ar
    26     7     8   ar
    27     8     9   ar
    28    25    26    1
    29    26    27    1
    30    27    22    1
    31     9     1   ar
    32     8     4   ar
    33    15    10   ar
    34    31    32    1
    35    20    21    1
@<TRIPOS>MOLECULE
*****
 32 35 0 0 0
SMALL
GASTEIGER

@<TRIPOS>ATOM
      1 C         143.1100  142.8827  164.3731 C.ar    1  UNL1        0.1488
      2 C         143.5814  144.2665  164.0372 C.ar    1  UNL1        0.0390
      3 C         142.8881  145.0557  162.9665 C.ar    1  UNL1        0.0417
      4 C         141.7234  144.4611  162.2317 C.ar    1  UNL1        0.1640
      5 N         140.8488  144.9957  161.1365 N.ar    1  UNL1       -0.2234
      6 C         139.8369  143.9423  160.7956 C.ar    1  UNL1        0.1197
      7 C         140.0860  142.7567  161.6801 C.ar    1  UNL1        0.1036
      8 N         141.2519  143.0774  162.5677 N.ar    1  UNL1       -0.2096
      9 N         141.9453  142.2882  163.6383 N.ar    1  UNL1       -0.1489
     10 C         139.3062  141.4753  161.6775 C.ar    1  UNL1        0.0192
     11 C         138.4172  141.1408  160.5165 C.ar    1  UNL1        0.0015
     12 C         137.6374  139.8594  160.5139 C.ar    1  UNL1       -0.0000
     13 C         137.7465  138.9126  161.6722 C.ar    1  UNL1        0.0039
     14 C         138.6355  139.2472  162.8331 C.ar    1  UNL1        0.0715
     15 C         139.4153  140.5285  162.8357 C.ar    1  UNL1        0.0054
     16 C         138.7447  138.3004  163.9915 C.3     1  UNL1        0.4186
     17 F         138.8538  137.3536  165.1497 F       1  UNL1       -0.1659
     18 F         139.2397  137.2274  163.0677 F       1  UNL1       -0.1659
     19 F         138.2496  139.3735  164.9152 F       1  UNL1       -0.1659
     20 N         143.8033  142.0934  165.4438 N.pl3   1  UNL1       -0.3184
     21 H         144.7705  141.9210  165.3801 H       1  UNL1        0.1482
     22 C         141.4624  140.5137  168.9473 C.3     1  UNL1        0.0248
     23 C         142.1339  141.8519  169.0362 C.3     1  UNL1        0.0040
     24 C         142.9143  142.3786  167.8683 C.3     1  UNL1        0.0196
     25 C         143.0230  141.5669  166.6117 C.3     1  UNL1        0.0704
     26 C         142.3514  140.2285  166.5228 C.3     1  UNL1        0.0196
     27 C         141.5711  139.7019  167.6906 C.3     1  UNL1        0.0040
     28 C         139.5438  140.8994  169.7659 C.3     1  UNL1        0.0293
     29 C         140.6821  139.9871  170.1151 C.3     1  UNL1        0.0884
     30 C         141.8204  139.0748  170.4643 C.3     1  UNL1        0.0293
     31 O         139.9018  139.4605  171.2830 O.3     1  UNL1       -0.3867
     32 H         139.0396  139.9031  171.3218 H       1  UNL1        0.2102
@<TRIPOS>BOND
     1    28    29    1
     2    29    30    1
     3    29    31    1
     4    22    29    1
     5    22    23    1
     6    23    24    1
     7    24    25    1
     8    25    20    1
     9    20     1    1
    10     1     2   ar
    11     2     3   ar
    12     3     4   ar
    13     4     5   ar
    14     5     6   ar
    15     6     7   ar
    16     7    10    1
    17    10    11   ar
    18    11    12   ar
    19    12    13   ar
    20    13    14   ar
    21    14    16    1
    22    16    17    1
    23    16    18    1
    24    16    19    1
    25    14    15   ar
    26     7     8   ar
    27     8     9   ar
    28    25    26    1
    29    26    27    1
    30    27    22    1
    31     9     1   ar
    32     8     4   ar
    33    15    10   ar
    34    31    32    1
    35    20    21    1
@<TRIPOS>MOLECULE
*****
 32 35 0 0 0
SMALL
GASTEIGER

@<TRIPOS>ATOM
      1 C         139.8915  144.3820  163.1857 C.ar    1  UNL1        0.1488
      2 C         139.5251  145.6875  162.5443 C.ar    1  UNL1        0.0390
      3 C         140.0774  146.0415  161.1954 C.ar    1  UNL1        0.0417
      4 C         140.9960  145.0899  160.4878 C.ar    1  UNL1        0.1640
      5 N         141.6905  145.1653  159.1603 N.ar    1  UNL1       -0.2234
      6 C         142.4860  143.9064  158.9813 C.ar    1  UNL1        0.1197
      7 C         142.2833  143.0529  160.1981 C.ar    1  UNL1        0.1036
      8 N         141.3624  143.7844  161.1291 N.ar    1  UNL1       -0.2096
      9 N         140.8102  143.4304  162.4781 N.ar    1  UNL1       -0.1489
     10 C         142.8941  141.7047  160.4411 C.ar    1  UNL1        0.0192
     11 C         142.8822  140.6692  159.3559 C.ar    1  UNL1        0.0015
     12 C         143.4931  139.3210  159.5990 C.ar    1  UNL1       -0.0000
     13 C         144.1159  139.0081  160.9272 C.ar    1  UNL1        0.0039
     14 C         144.1278  140.0436  162.0124 C.ar    1  UNL1        0.0715
     15 C         143.5169  141.3919  161.7693 C.ar    1  UNL1        0.0054
     16 C         144.7506  139.7308  163.3407 C.3     1  UNL1        0.4186
     17 F         145.3734  139.4181  164.6690 F       1  UNL1       -0.1659
     18 F         145.6583  140.9159  163.1942 F       1  UNL1       -0.1659
     19 F         143.8428  138.5457  163.4873 F       1  UNL1       -0.1659
     20 N         139.3393  144.0279  164.5347 N.pl3   1  UNL1       -0.3184
     21 H         139.1461  144.7375  165.1892 H       1  UNL1        0.1482
     22 C         138.5656  139.7223  165.5899 C.3     1  UNL1        0.0248
     23 C         139.5334  140.5312  166.4017 C.3     1  UNL1        0.0040
     24 C         139.7913  141.9665  166.0499 C.3     1  UNL1        0.0196
     25 C         139.0814  142.5928  164.8864 C.3     1  UNL1        0.0704
     26 C         138.1136  141.7838  164.0746 C.3     1  UNL1        0.0196
     27 C         137.8557  140.3486  164.4263 C.3     1  UNL1        0.0040
     28 C         138.9751  137.8555  164.6695 C.3     1  UNL1        0.0293
     29 C         138.3077  138.2872  165.9416 C.3     1  UNL1        0.0884
     30 C         137.6404  138.7189  167.2137 C.3     1  UNL1        0.0293
     31 O         138.0498  136.8520  166.2934 O.3     1  UNL1       -0.3867
     32 H         138.4011  136.2794  165.5937 H       1  UNL1        0.2102
@<TRIPOS>BOND
     1    28    29    1
     2    29    30    1
     3    29    31    1
     4    22    29    1
     5    22    23    1
     6    23    24    1
     7    24    25    1
     8    25    20    1
     9    20     1    1
    10     1     2   ar
    11     2     3   ar
    12     3     4   ar
    13     4     5   ar
    14     5     6   ar
    15     6     7   ar
    16     7    10    1
    17    10    11   ar
    18    11    12   ar
    19    12    13   ar
    20    13    14   ar
    21    14    16    1
    22    16    17    1
    23    16    18    1
    24    16    19    1
    25    14    15   ar
    26     7     8   ar
    27     8     9   ar
    28    25    26    1
    29    26    27    1
    30    27    22    1
    31     9     1   ar
    32     8     4   ar
    33    15    10   ar
    34    31    32    1
    35    20    21    1
