@<TRIPOS>MOLECULE
*****
 39 41 0 0 0
SMALL
GASTEIGER

@<TRIPOS>ATOM
      1 C         141.0856  142.6488  164.6277 C.2     1  UNL1        0.2491
      2 O         142.5173  142.3756  164.2734 O.2     1  UNL1       -0.2699
      3 N         140.4321  143.9225  164.1799 N.am    1  UNL1       -0.2775
      4 C         139.7071  140.5779  167.7199 C.ar    1  UNL1        0.1723
      5 C         140.4853  141.5783  166.9177 C.ar    1  UNL1        0.0446
      6 C         140.3074  141.6482  165.4299 C.ar    1  UNL1        0.0568
      7 C         139.3514  140.7177  164.7443 C.ar    1  UNL1        0.0078
      8 C         138.5733  139.7172  165.5465 C.ar    1  UNL1        0.0402
      9 C         138.7511  139.6473  167.0342 C.ar    1  UNL1        0.1724
     10 O         137.9729  138.6468  167.8364 O.3     1  UNL1       -0.4684
     11 C         137.2442  137.5337  167.1436 C.3     1  UNL1        0.2526
     12 O         139.8850  140.5080  169.2076 O.3     1  UNL1       -0.4723
     13 C         141.1102  139.8654  169.7871 C.3     1  UNL1        0.2082
     14 C         142.1321  140.7032  170.4969 C.3     1  UNL1        0.0794
     15 C         142.3575  142.1258  170.0781 C.3     1  UNL1        0.1461
     16 C         140.4682  143.8953  169.8551 C.3     1  UNL1        0.1741
     17 O         141.5289  143.2239  170.6762 O.3     1  UNL1       -0.3510
     18 C         139.0003  144.1956  164.5343 C.3     1  UNL1        0.0757
     19 C         137.9023  143.7545  163.6125 C.3     1  UNL1        0.0215
     20 C         138.6667  144.9099  165.8104 C.3     1  UNL1        0.0215
     21 C         141.2102  144.9230  163.3778 C.3     1  UNL1        0.0986
     22 C         141.0074  145.0159  161.8945 C.3     1  UNL1        0.0771
     23 C         139.9366  145.8028  161.1986 C.3     1  UNL1        0.0740
     24 N         140.1072  145.6115  159.7206 N.3     1  UNL1       -0.2943
     25 C         141.2834  144.7065  159.5031 C.3     1  UNL1        0.1129
     26 C         141.8398  144.3384  160.8466 C.3     1  UNL1        0.1890
     27 H         140.2757  146.5120  159.2722 H       1  UNL1        0.1234
     28 O         143.0211  143.4489  161.0980 O.3     1  UNL1       -0.4369
     29 C         142.8656  141.9586  161.0310 C.2     1  UNL1        0.4018
     30 O         141.7199  141.3574  160.2720 O.2     1  UNL1       -0.2264
     31 N         143.8558  141.0692  161.7229 N.am    1  UNL1       -0.2665
     32 H         144.6077  141.4637  162.2210 H       1  UNL1        0.1531
     33 C         143.7002  139.5789  161.6557 C.3     1  UNL1        0.1194
     34 C         142.8816  138.8629  162.6889 C.ar    1  UNL1       -0.0025
     35 C         143.1726  139.0627  164.1468 C.ar    1  UNL1       -0.0026
     36 C         142.3540  138.3468  165.1800 C.ar    1  UNL1       -0.0003
     37 C         141.2445  137.4311  164.7553 C.ar    1  UNL1       -0.0000
     38 C         140.9535  137.2313  163.2973 C.ar    1  UNL1       -0.0003
     39 C         141.7721  137.9472  162.2642 C.ar    1  UNL1       -0.0026
@<TRIPOS>BOND
     1    16    17    1
     2    17    15    1
     3    15    14    1
     4    14    13    1
     5    13    12    1
     6    12     4    1
     7     4     5   ar
     8     5     6   ar
     9     6     1    1
    10     1     2    2
    11     1     3   am
    12     3    21    1
    13    22    21    1
    14    22    23    1
    15    23    24    1
    16    24    25    1
    17    25    26    1
    18    26    28    1
    19    28    29    1
    20    29    30    2
    21    29    31   am
    22    31    33    1
    23    33    34    1
    24    34    35   ar
    25    35    36   ar
    26    36    37   ar
    27    37    38   ar
    28    38    39   ar
    29     3    18    1
    30    18    19    1
    31    18    20    1
    32     6     7   ar
    33     7     8   ar
    34     8     9   ar
    35     9    10    1
    36    10    11    1
    37     9     4   ar
    38    26    22    1
    39    39    34   ar
    40    24    27    1
    41    31    32    1
@<TRIPOS>MOLECULE
*****
 39 41 0 0 0
SMALL
GASTEIGER

@<TRIPOS>ATOM
      1 C         142.9146  142.4137  163.3124 C.2     1  UNL1        0.2491
      2 O         142.8747  143.8311  162.8231 O.2     1  UNL1       -0.2699
      3 N         143.7102  141.3845  162.5655 N.am    1  UNL1       -0.2775
      4 C         140.1163  140.8753  165.6689 C.ar    1  UNL1        0.1723
      5 C         140.8720  141.2636  164.4327 C.ar    1  UNL1        0.0446
      6 C         142.1589  142.0255  164.5487 C.ar    1  UNL1        0.0568
      7 C         142.6900  142.3991  165.9008 C.ar    1  UNL1        0.0078
      8 C         141.9343  142.0109  167.1369 C.ar    1  UNL1        0.0402
      9 C         140.6475  141.2490  167.0210 C.ar    1  UNL1        0.1724
     10 O         139.8917  140.8607  168.2572 O.3     1  UNL1       -0.4684
     11 C         140.5373  139.9795  169.2851 C.3     1  UNL1        0.2526
     12 O         138.8294  140.1134  165.5530 O.3     1  UNL1       -0.4723
     13 C         138.8296  138.6183  165.6733 C.3     1  UNL1        0.2082
     14 C         139.6172  137.7879  164.7037 C.3     1  UNL1        0.0794
     15 C         139.2322  137.7603  163.2542 C.3     1  UNL1        0.1461
     16 C         138.3964  139.8819  162.0091 C.3     1  UNL1        0.1741
     17 O         138.1042  138.6175  162.7614 O.3     1  UNL1       -0.3510
     18 C         143.7500  139.9671  163.0549 C.3     1  UNL1        0.0757
     19 C         142.7790  138.9595  162.5145 C.3     1  UNL1        0.0215
     20 C         144.7608  139.5573  164.0846 C.3     1  UNL1        0.0215
     21 C         144.4659  141.7727  161.3293 C.3     1  UNL1        0.0986
     22 C         143.8853  141.4896  159.9755 C.3     1  UNL1        0.0771
     23 C         143.9163  140.1711  159.2610 C.3     1  UNL1        0.0740
     24 N         143.2220  140.3419  157.9424 N.3     1  UNL1       -0.2943
     25 C         142.7619  141.7661  157.8419 C.3     1  UNL1        0.1129
     26 C         143.1719  142.4754  159.0984 C.3     1  UNL1        0.1890
     27 H         142.4196  139.7144  157.8898 H       1  UNL1        0.1234
     28 O         142.9137  143.9173  159.4212 O.3     1  UNL1       -0.4369
     29 C         141.5609  144.3468  159.9061 C.2     1  UNL1        0.4018
     30 O         140.3240  143.7373  159.3154 O.2     1  UNL1       -0.2264
     31 N         141.4446  145.3857  160.9819 N.am    1  UNL1       -0.2665
     32 H         142.2564  145.7857  161.3696 H       1  UNL1        0.1531
     33 C         140.0917  145.8151  161.4668 C.3     1  UNL1        0.1194
     34 C         139.4137  145.0552  162.5680 C.ar    1  UNL1       -0.0025
     35 C         139.8515  145.2449  163.9901 C.ar    1  UNL1       -0.0026
     36 C         139.1735  144.4850  165.0914 C.ar    1  UNL1       -0.0003
     37 C         138.0576  143.5353  164.7706 C.ar    1  UNL1       -0.0000
     38 C         137.6198  143.3455  163.3484 C.ar    1  UNL1       -0.0003
     39 C         138.2978  144.1055  162.2472 C.ar    1  UNL1       -0.0026
@<TRIPOS>BOND
     1    16    17    1
     2    17    15    1
     3    15    14    1
     4    14    13    1
     5    13    12    1
     6    12     4    1
     7     4     5   ar
     8     5     6   ar
     9     6     1    1
    10     1     2    2
    11     1     3   am
    12     3    21    1
    13    22    21    1
    14    22    23    1
    15    23    24    1
    16    24    25    1
    17    25    26    1
    18    26    28    1
    19    28    29    1
    20    29    30    2
    21    29    31   am
    22    31    33    1
    23    33    34    1
    24    34    35   ar
    25    35    36   ar
    26    36    37   ar
    27    37    38   ar
    28    38    39   ar
    29     3    18    1
    30    18    19    1
    31    18    20    1
    32     6     7   ar
    33     7     8   ar
    34     8     9   ar
    35     9    10    1
    36    10    11    1
    37     9     4   ar
    38    26    22    1
    39    39    34   ar
    40    24    27    1
    41    31    32    1
@<TRIPOS>MOLECULE
*****
 39 41 0 0 0
SMALL
GASTEIGER

@<TRIPOS>ATOM
      1 C         140.1877  139.1076  165.4254 C.2     1  UNL1        0.2491
      2 O         138.7985  138.6574  165.0831 O.2     1  UNL1       -0.2699
      3 N         141.3653  138.5195  164.7062 N.am    1  UNL1       -0.2775
      4 C         140.9019  140.7663  168.9593 C.ar    1  UNL1        0.1723
      5 C         140.6903  139.7279  167.8978 C.ar    1  UNL1        0.0446
      6 C         140.3994  140.1461  166.4869 C.ar    1  UNL1        0.0568
      7 C         140.3201  141.6027  166.1376 C.ar    1  UNL1        0.0078
      8 C         140.5317  142.6411  167.1992 C.ar    1  UNL1        0.0402
      9 C         140.8227  142.2229  168.6100 C.ar    1  UNL1        0.1724
     10 O         141.0343  143.2614  169.6716 O.3     1  UNL1       -0.4684
     11 C         142.3855  143.4246  170.3022 C.3     1  UNL1        0.2526
     12 O         141.1929  140.3481  170.3701 O.3     1  UNL1       -0.4723
     13 C         142.5124  139.7207  170.7095 C.3     1  UNL1        0.2082
     14 C         142.9891  138.5189  169.9490 C.3     1  UNL1        0.0794
     15 C         143.3453  137.2599  170.6826 C.3     1  UNL1        0.1461
     16 C         145.1797  135.6317  171.5393 C.3     1  UNL1        0.1741
     17 O         144.7694  136.9974  171.0741 O.3     1  UNL1       -0.3510
     18 C         142.7546  138.9698  165.0485 C.3     1  UNL1        0.0757
     19 C         143.5523  138.2250  166.0776 C.3     1  UNL1        0.0215
     20 C         143.3462  140.1650  164.3618 C.3     1  UNL1        0.0215
     21 C         141.1537  137.4811  163.6446 C.3     1  UNL1        0.0986
     22 C         141.4168  137.8146  162.2061 C.3     1  UNL1        0.0771
     23 C         142.7581  137.8258  161.5346 C.3     1  UNL1        0.0740
     24 N         142.5551  138.2137  160.0999 N.3     1  UNL1       -0.2943
     25 C         141.0883  138.4423  159.8847 C.3     1  UNL1        0.1129
     26 C         140.3849  138.1957  161.1863 C.3     1  UNL1        0.1890
     27 H         142.8820  137.4649  159.4893 H       1  UNL1        0.1234
     28 O         138.9086  138.3100  161.4261 O.3     1  UNL1       -0.4369
     29 C         138.2682  139.6623  161.5303 C.2     1  UNL1        0.4018
     30 O         138.0028  140.4640  160.2905 O.2     1  UNL1       -0.2264
     31 N         137.8930  140.2132  162.8741 N.am    1  UNL1       -0.2665
     32 H         138.0672  139.6871  163.6878 H       1  UNL1        0.1531
     33 C         137.2526  141.5656  162.9781 C.3     1  UNL1        0.1194
     34 C         138.0538  142.7401  163.4563 C.ar    1  UNL1       -0.0025
     35 C         139.3250  143.1165  162.7547 C.ar    1  UNL1       -0.0026
     36 C         140.1262  144.2910  163.2328 C.ar    1  UNL1       -0.0003
     37 C         139.6562  145.0890  164.4127 C.ar    1  UNL1       -0.0000
     38 C         138.3849  144.7126  165.1144 C.ar    1  UNL1       -0.0003
     39 C         137.5838  143.5381  164.6362 C.ar    1  UNL1       -0.0026
@<TRIPOS>BOND
     1    16    17    1
     2    17    15    1
     3    15    14    1
     4    14    13    1
     5    13    12    1
     6    12     4    1
     7     4     5   ar
     8     5     6   ar
     9     6     1    1
    10     1     2    2
    11     1     3   am
    12     3    21    1
    13    22    21    1
    14    22    23    1
    15    23    24    1
    16    24    25    1
    17    25    26    1
    18    26    28    1
    19    28    29    1
    20    29    30    2
    21    29    31   am
    22    31    33    1
    23    33    34    1
    24    34    35   ar
    25    35    36   ar
    26    36    37   ar
    27    37    38   ar
    28    38    39   ar
    29     3    18    1
    30    18    19    1
    31    18    20    1
    32     6     7   ar
    33     7     8   ar
    34     8     9   ar
    35     9    10    1
    36    10    11    1
    37     9     4   ar
    38    26    22    1
    39    39    34   ar
    40    24    27    1
    41    31    32    1
@<TRIPOS>MOLECULE
*****
 39 41 0 0 0
SMALL
GASTEIGER

@<TRIPOS>ATOM
      1 C         142.4226  139.2449  163.6220 C.2     1  UNL1        0.2491
      2 O         143.7453  138.7927  164.1660 O.2     1  UNL1       -0.2699
      3 N         142.3360  139.8123  162.2362 N.am    1  UNL1       -0.2775
      4 C         139.7087  139.9887  166.4204 C.ar    1  UNL1        0.1723
      5 C         140.9448  140.1038  165.5786 C.ar    1  UNL1        0.0446
      6 C         141.1864  139.1297  164.4638 C.ar    1  UNL1        0.0568
      7 C         140.1920  138.0405  164.1909 C.ar    1  UNL1        0.0078
      8 C         138.9559  137.9253  165.0328 C.ar    1  UNL1        0.0402
      9 C         138.7142  138.8994  166.1475 C.ar    1  UNL1        0.1724
     10 O         137.4780  138.7843  166.9894 O.3     1  UNL1       -0.4684
     11 C         137.0199  137.4388  167.4690 C.3     1  UNL1        0.2526
     12 O         139.4670  140.9628  167.5352 O.3     1  UNL1       -0.4723
     13 C         140.0947  140.7361  168.8786 C.3     1  UNL1        0.2082
     14 C         139.9281  141.7559  169.9659 C.3     1  UNL1        0.0794
     15 C         140.2389  143.1982  169.6955 C.3     1  UNL1        0.1461
     16 C         142.7104  142.9909  170.4690 C.3     1  UNL1        0.1741
     17 O         141.4758  143.8199  170.2729 O.3     1  UNL1       -0.3510
     18 C         141.0133  140.2645  161.6922 C.3     1  UNL1        0.0757
     19 C         140.5219  141.6535  161.9736 C.3     1  UNL1        0.0215
     20 C         140.1820  139.3277  160.8667 C.3     1  UNL1        0.0215
     21 C         143.5721  139.9275  161.3943 C.3     1  UNL1        0.0986
     22 C         143.6068  140.8846  160.2398 C.3     1  UNL1        0.0771
     23 C         143.0930  140.6162  158.8563 C.3     1  UNL1        0.0740
     24 N         143.3300  141.8438  158.0276 N.3     1  UNL1       -0.2943
     25 C         143.9902  142.8709  158.8988 C.3     1  UNL1        0.1129
     26 C         144.1613  142.2781  160.2660 C.3     1  UNL1        0.1890
     27 H         142.4411  142.2040  157.6805 H       1  UNL1        0.1234
     28 O         144.7785  142.9592  161.4514 O.3     1  UNL1       -0.4369
     29 C         143.9088  143.4559  162.5679 C.2     1  UNL1        0.4018
     30 O         143.6707  142.5951  163.7731 O.2     1  UNL1       -0.2264
     31 N         143.2771  144.8136  162.4795 N.am    1  UNL1       -0.2665
     32 H         143.4334  145.3786  161.6886 H       1  UNL1        0.1531
     33 C         142.4074  145.3103  163.5961 C.3     1  UNL1        0.1194
     34 C         140.9916  144.8293  163.7149 C.ar    1  UNL1       -0.0025
     35 C         140.6055  143.9018  164.8287 C.ar    1  UNL1       -0.0026
     36 C         139.1897  143.4207  164.9475 C.ar    1  UNL1       -0.0003
     37 C         138.1600  143.8672  163.9524 C.ar    1  UNL1       -0.0000
     38 C         138.5460  144.7947  162.8385 C.ar    1  UNL1       -0.0003
     39 C         139.9619  145.2757  162.7197 C.ar    1  UNL1       -0.0026
@<TRIPOS>BOND
     1    16    17    1
     2    17    15    1
     3    15    14    1
     4    14    13    1
     5    13    12    1
     6    12     4    1
     7     4     5   ar
     8     5     6   ar
     9     6     1    1
    10     1     2    2
    11     1     3   am
    12     3    21    1
    13    22    21    1
    14    22    23    1
    15    23    24    1
    16    24    25    1
    17    25    26    1
    18    26    28    1
    19    28    29    1
    20    29    30    2
    21    29    31   am
    22    31    33    1
    23    33    34    1
    24    34    35   ar
    25    35    36   ar
    26    36    37   ar
    27    37    38   ar
    28    38    39   ar
    29     3    18    1
    30    18    19    1
    31    18    20    1
    32     6     7   ar
    33     7     8   ar
    34     8     9   ar
    35     9    10    1
    36    10    11    1
    37     9     4   ar
    38    26    22    1
    39    39    34   ar
    40    24    27    1
    41    31    32    1
@<TRIPOS>MOLECULE
*****
 39 41 0 0 0
SMALL
GASTEIGER

@<TRIPOS>ATOM
      1 C         141.9102  138.7814  163.8931 C.2     1  UNL1        0.2491
      2 O         143.1433  138.5454  163.0722 O.2     1  UNL1       -0.2699
      3 N         140.5758  138.3122  163.3939 N.am    1  UNL1       -0.2775
      4 C         141.5913  141.5908  166.6780 C.ar    1  UNL1        0.1723
      5 C         141.4900  140.8856  165.3580 C.ar    1  UNL1        0.0446
      6 C         142.0115  139.4866  165.2131 C.ar    1  UNL1        0.0568
      7 C         142.6343  138.7929  166.3882 C.ar    1  UNL1        0.0078
      8 C         142.7356  139.4982  167.7081 C.ar    1  UNL1        0.0402
      9 C         142.2141  140.8971  167.8530 C.ar    1  UNL1        0.1724
     10 O         142.3154  141.6023  169.1731 O.3     1  UNL1       -0.4684
     11 C         143.5989  142.2692  169.5706 C.3     1  UNL1        0.2526
     12 O         141.0698  142.9898  166.8229 O.3     1  UNL1       -0.4723
     13 C         139.9081  143.4470  165.9914 C.3     1  UNL1        0.2082
     14 C         140.1485  144.1235  164.6744 C.3     1  UNL1        0.0794
     15 C         139.0380  144.8774  164.0047 C.3     1  UNL1        0.1461
     16 C         137.9043  143.1649  162.4136 C.3     1  UNL1        0.1741
     17 O         137.8109  144.1500  163.5408 O.3     1  UNL1       -0.3510
     18 C         139.3427  138.5482  164.2148 C.3     1  UNL1        0.0757
     19 C         138.9236  137.5419  165.2452 C.3     1  UNL1        0.0215
     20 C         138.5287  139.7906  164.0053 C.3     1  UNL1        0.0215
     21 C         140.4744  137.6070  162.0740 C.3     1  UNL1        0.0986
     22 C         140.0117  138.3539  160.8582 C.3     1  UNL1        0.0771
     23 C         138.6094  138.8107  160.5847 C.3     1  UNL1        0.0740
     24 N         138.6010  139.5142  159.2600 N.3     1  UNL1       -0.2943
     25 C         139.9982  139.4921  158.7146 C.3     1  UNL1        0.1129
     26 C         140.8700  138.7750  159.7024 C.3     1  UNL1        0.1890
     27 H         138.2923  140.4787  159.3821 H       1  UNL1        0.1234
     28 O         142.3418  138.5232  159.5594 O.3     1  UNL1       -0.4369
     29 C         143.3149  139.6538  159.7162 C.2     1  UNL1        0.4018
     30 O         144.2761  139.9750  158.6102 O.2     1  UNL1       -0.2264
     31 N         143.3269  140.4634  160.9789 N.am    1  UNL1       -0.2665
     32 H         142.6961  140.2527  161.7048 H       1  UNL1        0.1531
     33 C         144.3001  141.5941  161.1356 C.3     1  UNL1        0.1194
     34 C         144.2285  142.4835  162.3414 C.ar    1  UNL1       -0.0025
     35 C         144.6659  141.9683  163.6805 C.ar    1  UNL1       -0.0026
     36 C         144.5944  142.8577  164.8863 C.ar    1  UNL1       -0.0003
     37 C         144.0854  144.2624  164.7529 C.ar    1  UNL1       -0.0000
     38 C         143.6480  144.7777  163.4137 C.ar    1  UNL1       -0.0003
     39 C         143.7195  143.8882  162.2080 C.ar    1  UNL1       -0.0026
@<TRIPOS>BOND
     1    16    17    1
     2    17    15    1
     3    15    14    1
     4    14    13    1
     5    13    12    1
     6    12     4    1
     7     4     5   ar
     8     5     6   ar
     9     6     1    1
    10     1     2    2
    11     1     3   am
    12     3    21    1
    13    22    21    1
    14    22    23    1
    15    23    24    1
    16    24    25    1
    17    25    26    1
    18    26    28    1
    19    28    29    1
    20    29    30    2
    21    29    31   am
    22    31    33    1
    23    33    34    1
    24    34    35   ar
    25    35    36   ar
    26    36    37   ar
    27    37    38   ar
    28    38    39   ar
    29     3    18    1
    30    18    19    1
    31    18    20    1
    32     6     7   ar
    33     7     8   ar
    34     8     9   ar
    35     9    10    1
    36    10    11    1
    37     9     4   ar
    38    26    22    1
    39    39    34   ar
    40    24    27    1
    41    31    32    1
@<TRIPOS>MOLECULE
*****
 39 41 0 0 0
SMALL
GASTEIGER

@<TRIPOS>ATOM
      1 C         141.6388  139.9166  161.6030 C.2     1  UNL1        0.2491
      2 O         143.1040  139.5981  161.5616 O.2     1  UNL1       -0.2699
      3 N         140.9261  140.3329  160.3506 N.am    1  UNL1       -0.2775
      4 C         139.7223  140.9685  164.9152 C.ar    1  UNL1        0.1723
      5 C         140.4747  141.0662  163.6213 C.ar    1  UNL1        0.0446
      6 C         140.8863  139.8188  162.8970 C.ar    1  UNL1        0.0568
      7 C         140.5454  138.4737  163.4665 C.ar    1  UNL1        0.0078
      8 C         139.7929  138.3760  164.7604 C.ar    1  UNL1        0.0402
      9 C         139.3814  139.6234  165.4847 C.ar    1  UNL1        0.1724
     10 O         138.6288  139.5256  166.7787 O.3     1  UNL1       -0.4684
     11 C         137.6351  138.4214  166.9868 C.3     1  UNL1        0.2526
     12 O         139.3107  142.2159  165.6395 O.3     1  UNL1       -0.4723
     13 C         140.0643  143.4940  165.4197 C.3     1  UNL1        0.2082
     14 C         139.4245  144.6216  164.6653 C.3     1  UNL1        0.0794
     15 C         138.4945  144.3290  163.5254 C.3     1  UNL1        0.1461
     16 C         139.7154  145.9932  161.9475 C.3     1  UNL1        0.1741
     17 O         138.4855  145.2183  162.3174 O.3     1  UNL1       -0.3510
     18 C         139.4608  140.6514  160.3920 C.3     1  UNL1        0.0757
     19 C         138.4501  139.5544  160.2342 C.3     1  UNL1        0.0215
     20 C         139.0064  142.0670  160.5913 C.3     1  UNL1        0.0215
     21 C         141.6785  140.4307  159.0567 C.3     1  UNL1        0.0986
     22 C         141.9810  141.7753  158.4647 C.3     1  UNL1        0.0771
     23 C         141.1067  142.5365  157.5128 C.3     1  UNL1        0.0740
     24 N         141.7963  143.8265  157.1805 N.3     1  UNL1       -0.2943
     25 C         143.0968  143.8626  157.9271 C.3     1  UNL1        0.1129
     26 C         143.2109  142.5949  158.7208 C.3     1  UNL1        0.1890
     27 H         141.2127  144.6138  157.4634 H       1  UNL1        0.1234
     28 O         144.3543  142.2138  159.6138 O.3     1  UNL1       -0.4369
     29 C         144.3439  142.6161  161.0587 C.2     1  UNL1        0.4018
     30 O         143.6515  143.8780  161.4810 O.2     1  UNL1       -0.2264
     31 N         145.0258  141.7565  162.0816 N.am    1  UNL1       -0.2665
     32 H         145.4802  140.9283  161.8045 H       1  UNL1        0.1531
     33 C         145.0153  142.1589  163.5265 C.3     1  UNL1        0.1194
     34 C         144.3152  141.3014  164.5388 C.ar    1  UNL1       -0.0025
     35 C         144.4412  139.8082  164.4726 C.ar    1  UNL1       -0.0026
     36 C         143.7411  138.9507  165.4848 C.ar    1  UNL1       -0.0003
     37 C         142.9149  139.5865  166.5633 C.ar    1  UNL1       -0.0000
     38 C         142.7888  141.0798  166.6295 C.ar    1  UNL1       -0.0003
     39 C         143.4890  141.9372  165.6173 C.ar    1  UNL1       -0.0026
@<TRIPOS>BOND
     1    16    17    1
     2    17    15    1
     3    15    14    1
     4    14    13    1
     5    13    12    1
     6    12     4    1
     7     4     5   ar
     8     5     6   ar
     9     6     1    1
    10     1     2    2
    11     1     3   am
    12     3    21    1
    13    22    21    1
    14    22    23    1
    15    23    24    1
    16    24    25    1
    17    25    26    1
    18    26    28    1
    19    28    29    1
    20    29    30    2
    21    29    31   am
    22    31    33    1
    23    33    34    1
    24    34    35   ar
    25    35    36   ar
    26    36    37   ar
    27    37    38   ar
    28    38    39   ar
    29     3    18    1
    30    18    19    1
    31    18    20    1
    32     6     7   ar
    33     7     8   ar
    34     8     9   ar
    35     9    10    1
    36    10    11    1
    37     9     4   ar
    38    26    22    1
    39    39    34   ar
    40    24    27    1
    41    31    32    1
@<TRIPOS>MOLECULE
*****
 39 41 0 0 0
SMALL
GASTEIGER

@<TRIPOS>ATOM
      1 C         143.4917  142.2613  160.8950 C.2     1  UNL1        0.2491
      2 O         144.0682  143.6100  161.2088 O.2     1  UNL1       -0.2699
      3 N         143.0841  141.9282  159.4904 N.am    1  UNL1       -0.2775
      4 C         141.7871  139.9298  163.6168 C.ar    1  UNL1        0.1723
      5 C         141.9561  140.9455  162.5261 C.ar    1  UNL1        0.0446
      6 C         143.3228  141.2456  161.9858 C.ar    1  UNL1        0.0568
      7 C         144.5207  140.5300  162.5363 C.ar    1  UNL1        0.0078
      8 C         144.3517  139.5143  163.6271 C.ar    1  UNL1        0.0402
      9 C         142.9850  139.2142  164.1673 C.ar    1  UNL1        0.1724
     10 O         142.8161  138.1985  165.2582 O.3     1  UNL1       -0.4684
     11 C         143.7492  138.1970  166.4326 C.3     1  UNL1        0.2526
     12 O         140.4204  139.6297  164.1571 O.3     1  UNL1       -0.4723
     13 C         139.4758  138.7690  163.3718 C.3     1  UNL1        0.2082
     14 C         138.1390  139.3079  162.9565 C.3     1  UNL1        0.0794
     15 C         137.7367  140.6991  163.3477 C.3     1  UNL1        0.1461
     16 C         138.1529  141.8528  161.0574 C.3     1  UNL1        0.1741
     17 O         137.3224  141.6840  162.2950 O.3     1  UNL1       -0.3510
     18 C         142.5075  140.5794  159.1766 C.3     1  UNL1        0.0757
     19 C         143.4183  139.4139  158.9277 C.3     1  UNL1        0.0215
     20 C         141.0202  140.3962  159.1118 C.3     1  UNL1        0.0215
     21 C         143.2529  142.9439  158.3996 C.3     1  UNL1        0.0986
     22 C         142.0475  143.5869  157.7804 C.3     1  UNL1        0.0771
     23 C         141.3531  143.1371  156.5292 C.3     1  UNL1        0.0740
     24 N         140.2012  144.0649  156.2792 N.3     1  UNL1       -0.2943
     25 C         140.1838  145.0882  157.3758 C.3     1  UNL1        0.1129
     26 C         141.3248  144.7928  158.3036 C.3     1  UNL1        0.1890
     27 H         139.3268  143.5397  156.2818 H       1  UNL1        0.1234
     28 O         141.6807  145.5672  159.5379 O.3     1  UNL1       -0.4369
     29 C         140.9978  145.2618  160.8379 C.2     1  UNL1        0.4018
     30 O         139.5176  145.0204  160.8690 O.2     1  UNL1       -0.2264
     31 N         141.7949  145.1977  162.1070 N.am    1  UNL1       -0.2665
     32 H         142.7663  145.3561  162.0867 H       1  UNL1        0.1531
     33 C         141.1118  144.8923  163.4071 C.3     1  UNL1        0.1194
     34 C         141.7768  143.9989  164.4119 C.ar    1  UNL1       -0.0025
     35 C         140.9455  143.1997  165.3712 C.ar    1  UNL1       -0.0026
     36 C         141.6104  142.3064  166.3761 C.ar    1  UNL1       -0.0003
     37 C         143.1067  142.2122  166.4217 C.ar    1  UNL1       -0.0000
     38 C         143.9382  143.0115  165.4624 C.ar    1  UNL1       -0.0003
     39 C         143.2732  143.9048  164.4576 C.ar    1  UNL1       -0.0026
@<TRIPOS>BOND
     1    16    17    1
     2    17    15    1
     3    15    14    1
     4    14    13    1
     5    13    12    1
     6    12     4    1
     7     4     5   ar
     8     5     6   ar
     9     6     1    1
    10     1     2    2
    11     1     3   am
    12     3    21    1
    13    22    21    1
    14    22    23    1
    15    23    24    1
    16    24    25    1
    17    25    26    1
    18    26    28    1
    19    28    29    1
    20    29    30    2
    21    29    31   am
    22    31    33    1
    23    33    34    1
    24    34    35   ar
    25    35    36   ar
    26    36    37   ar
    27    37    38   ar
    28    38    39   ar
    29     3    18    1
    30    18    19    1
    31    18    20    1
    32     6     7   ar
    33     7     8   ar
    34     8     9   ar
    35     9    10    1
    36    10    11    1
    37     9     4   ar
    38    26    22    1
    39    39    34   ar
    40    24    27    1
    41    31    32    1
@<TRIPOS>MOLECULE
*****
 39 41 0 0 0
SMALL
GASTEIGER

@<TRIPOS>ATOM
      1 C         139.4192  139.5113  166.5908 C.2     1  UNL1        0.2491
      2 O         138.0421  139.2942  167.1444 O.2     1  UNL1       -0.2699
      3 N         139.7521  139.0459  165.2042 N.am    1  UNL1       -0.2775
      4 C         142.4100  140.0662  169.1398 C.ar    1  UNL1        0.1723
      5 C         141.3657  139.3838  168.3069 C.ar    1  UNL1        0.0446
      6 C         140.4635  140.1938  167.4238 C.ar    1  UNL1        0.0568
      7 C         140.6055  141.6861  167.3736 C.ar    1  UNL1        0.0078
      8 C         141.6497  142.3685  168.2066 C.ar    1  UNL1        0.0402
      9 C         142.5520  141.5585  169.0897 C.ar    1  UNL1        0.1724
     10 O         143.5962  142.2410  169.9227 O.3     1  UNL1       -0.4684
     11 C         143.2114  143.3735  170.8278 C.3     1  UNL1        0.2526
     12 O         143.3122  139.2562  170.0229 O.3     1  UNL1       -0.4723
     13 C         143.0162  137.8065  170.2696 C.3     1  UNL1        0.2082
     14 C         143.9032  137.0033  171.1741 C.3     1  UNL1        0.0794
     15 C         144.8602  136.0051  170.5929 C.3     1  UNL1        0.1461
     16 C         146.9012  136.2241  172.1855 C.3     1  UNL1        0.1741
     17 O         145.9016  135.3688  171.4650 O.3     1  UNL1       -0.3510
     18 C         141.1293  139.2630  164.6506 C.3     1  UNL1        0.0757
     19 C         141.4487  140.5269  163.9087 C.3     1  UNL1        0.0215
     20 C         142.1869  138.2161  164.8390 C.3     1  UNL1        0.0215
     21 C         138.7079  138.3634  164.3712 C.3     1  UNL1        0.0986
     22 C         138.6020  138.6656  162.9058 C.3     1  UNL1        0.0771
     23 C         139.1512  137.8262  161.7905 C.3     1  UNL1        0.0740
     24 N         138.8169  138.5021  160.4938 N.3     1  UNL1       -0.2943
     25 C         138.0612  139.7592  160.8076 C.3     1  UNL1        0.1129
     26 C         137.9284  139.8603  162.2983 C.3     1  UNL1        0.1890
     27 H         138.2407  137.8857  159.9207 H       1  UNL1        0.1234
     28 O         137.2424  140.9625  163.0496 O.3     1  UNL1       -0.4369
     29 C         137.8907  142.3104  163.1615 C.2     1  UNL1        0.4018
     30 O         137.7316  143.3133  162.0574 O.2     1  UNL1       -0.2264
     31 N         138.6982  142.6557  164.3776 N.am    1  UNL1       -0.2665
     32 H         138.8027  141.9976  165.1023 H       1  UNL1        0.1531
     33 C         139.3465  144.0037  164.4894 C.3     1  UNL1        0.1194
     34 C         140.7296  144.2179  163.9497 C.ar    1  UNL1       -0.0025
     35 C         140.9187  144.7170  162.5479 C.ar    1  UNL1       -0.0026
     36 C         142.3018  144.9312  162.0081 C.ar    1  UNL1       -0.0003
     37 C         143.4957  144.6463  162.8703 C.ar    1  UNL1       -0.0000
     38 C         143.3066  144.1472  164.2722 C.ar    1  UNL1       -0.0003
     39 C         141.9236  143.9330  164.8119 C.ar    1  UNL1       -0.0026
@<TRIPOS>BOND
     1    16    17    1
     2    17    15    1
     3    15    14    1
     4    14    13    1
     5    13    12    1
     6    12     4    1
     7     4     5   ar
     8     5     6   ar
     9     6     1    1
    10     1     2    2
    11     1     3   am
    12     3    21    1
    13    22    21    1
    14    22    23    1
    15    23    24    1
    16    24    25    1
    17    25    26    1
    18    26    28    1
    19    28    29    1
    20    29    30    2
    21    29    31   am
    22    31    33    1
    23    33    34    1
    24    34    35   ar
    25    35    36   ar
    26    36    37   ar
    27    37    38   ar
    28    38    39   ar
    29     3    18    1
    30    18    19    1
    31    18    20    1
    32     6     7   ar
    33     7     8   ar
    34     8     9   ar
    35     9    10    1
    36    10    11    1
    37     9     4   ar
    38    26    22    1
    39    39    34   ar
    40    24    27    1
    41    31    32    1
@<TRIPOS>MOLECULE
*****
 39 41 0 0 0
SMALL
GASTEIGER

@<TRIPOS>ATOM
      1 C         139.3565  139.5416  163.0469 C.2     1  UNL1        0.2491
      2 O         138.2837  140.1676  162.2059 O.2     1  UNL1       -0.2699
      3 N         140.3591  138.6193  162.4192 N.am    1  UNL1       -0.2775
      4 C         140.4325  141.1909  166.4925 C.ar    1  UNL1        0.1723
      5 C         140.3624  140.8945  165.0238 C.ar    1  UNL1        0.0446
      6 C         139.4266  139.8380  164.5157 C.ar    1  UNL1        0.0568
      7 C         138.5610  139.0779  165.4764 C.ar    1  UNL1        0.0078
      8 C         138.6312  139.3743  166.9451 C.ar    1  UNL1        0.0402
      9 C         139.5669  140.4308  167.4531 C.ar    1  UNL1        0.1724
     10 O         139.6371  140.7272  168.9220 O.3     1  UNL1       -0.4684
     11 C         140.6622  140.0431  169.7770 C.3     1  UNL1        0.2526
     12 O         141.3683  142.2475  167.0005 O.3     1  UNL1       -0.4723
     13 C         142.8277  142.1833  166.6602 C.3     1  UNL1        0.2082
     14 C         143.3411  142.8665  165.4275 C.3     1  UNL1        0.0794
     15 C         144.1202  142.0890  164.4084 C.3     1  UNL1        0.1461
     16 C         144.6070  142.0044  161.8577 C.3     1  UNL1        0.1741
     17 O         143.6279  142.0026  162.9941 O.3     1  UNL1       -0.3510
     18 C         141.4319  137.9934  163.2603 C.3     1  UNL1        0.0757
     19 C         142.7874  138.6304  163.3431 C.3     1  UNL1        0.0215
     20 C         141.1492  136.7305  164.0186 C.3     1  UNL1        0.0215
     21 C         140.2890  138.3229  160.9505 C.3     1  UNL1        0.0986
     22 C         141.3539  138.8401  160.0293 C.3     1  UNL1        0.0771
     23 C         142.7012  138.2207  159.8034 C.3     1  UNL1        0.0740
     24 N         143.4385  139.0652  158.8068 N.3     1  UNL1       -0.2943
     25 C         142.5468  140.2067  158.4168 C.3     1  UNL1        0.1129
     26 C         141.2585  140.0675  159.1724 C.3     1  UNL1        0.1890
     27 H         143.6680  138.5083  157.9836 H       1  UNL1        0.1234
     28 O         140.0814  140.9933  159.0861 O.3     1  UNL1       -0.4369
     29 C         140.0771  142.2756  159.8643 C.2     1  UNL1        0.4018
     30 O         139.2625  143.4407  159.3856 O.2     1  UNL1       -0.2264
     31 N         140.8874  142.3929  161.1212 N.am    1  UNL1       -0.2665
     32 H         141.4220  141.6283  161.4354 H       1  UNL1        0.1531
     33 C         140.8830  143.6753  161.8993 C.3     1  UNL1        0.1194
     34 C         139.8617  143.8961  162.9755 C.ar    1  UNL1       -0.0025
     35 C         140.2632  144.5386  164.2701 C.ar    1  UNL1       -0.0026
     36 C         139.2420  144.7594  165.3464 C.ar    1  UNL1       -0.0003
     37 C         137.8192  144.3377  165.1280 C.ar    1  UNL1       -0.0000
     38 C         137.4176  143.6951  163.8334 C.ar    1  UNL1       -0.0003
     39 C         138.4389  143.4743  162.7572 C.ar    1  UNL1       -0.0026
@<TRIPOS>BOND
     1    16    17    1
     2    17    15    1
     3    15    14    1
     4    14    13    1
     5    13    12    1
     6    12     4    1
     7     4     5   ar
     8     5     6   ar
     9     6     1    1
    10     1     2    2
    11     1     3   am
    12     3    21    1
    13    22    21    1
    14    22    23    1
    15    23    24    1
    16    24    25    1
    17    25    26    1
    18    26    28    1
    19    28    29    1
    20    29    30    2
    21    29    31   am
    22    31    33    1
    23    33    34    1
    24    34    35   ar
    25    35    36   ar
    26    36    37   ar
    27    37    38   ar
    28    38    39   ar
    29     3    18    1
    30    18    19    1
    31    18    20    1
    32     6     7   ar
    33     7     8   ar
    34     8     9   ar
    35     9    10    1
    36    10    11    1
    37     9     4   ar
    38    26    22    1
    39    39    34   ar
    40    24    27    1
    41    31    32    1
