@<TRIPOS>MOLECULE
*****
 33 38 0 0 0
SMALL
GASTEIGER

@<TRIPOS>ATOM
      1 C         143.6179  134.7477  156.5931 C.ar    1  UNL1        0.1640
      2 N         142.9744  135.7544  157.5000 N.ar    1  UNL1       -0.2220
      3 C         143.0884  137.1022  156.8515 C.ar    1  UNL1        0.1344
      4 C         142.6343  138.4652  157.2829 C.ar    1  UNL1        0.1049
      5 C         142.8942  139.6545  156.4064 C.ar    1  UNL1        0.0392
      6 C         143.6082  139.4808  155.0988 C.ar    1  UNL1        0.0751
      7 N         144.0623  138.1178  154.6675 N.ar    1  UNL1       -0.3361
      8 C         143.8024  136.9285  155.5438 C.ar    1  UNL1        0.1615
      9 N         144.1296  135.4734  155.3841 N.ar    1  UNL1       -0.2081
     10 H         144.5309  138.0037  153.8092 H       1  UNL1        0.1675
     11 C         141.5914  128.6766  155.5850 C.3     1  UNL1        0.1305
     12 N         141.8406  130.1552  155.6276 N.ar    1  UNL1       -0.3240
     13 C         141.0731  131.2007  154.8739 C.ar    1  UNL1        0.0760
     14 C         141.6592  132.5395  155.2119 C.ar    1  UNL1        0.0202
     15 C         142.7889  132.3213  156.1743 C.ar    1  UNL1        0.0202
     16 C         143.7300  133.2741  156.8500 C.ar    1  UNL1        0.0373
     17 C         144.7831  132.7534  157.7826 C.ar    1  UNL1        0.0031
     18 C         144.8952  131.2798  158.0394 C.ar    1  UNL1        0.0016
     19 C         143.9541  130.3270  157.3638 C.ar    1  UNL1        0.0172
     20 C         142.9010  130.8477  156.4312 C.ar    1  UNL1        0.0601
     21 N         141.9203  138.6389  158.5905 N.ar    1  UNL1       -0.2268
     22 C         142.5588  138.9733  159.9060 C.ar    1  UNL1        0.0991
     23 C         141.4756  139.0498  160.9408 C.ar    1  UNL1        0.0339
     24 C         140.1677  138.7627  160.2648 C.ar    1  UNL1        0.1191
     25 N         140.4426  138.5087  158.8123 N.ar    1  UNL1       -0.1637
     26 C         141.6667  139.3591  162.3961 C.3     1  UNL1        0.1024
     27 N         143.0238  139.7386  162.9102 N.3     1  UNL1       -0.2667
     28 C         143.7703  139.0548  164.0170 C.3     1  UNL1        0.0750
     29 C         145.0805  139.7621  164.1986 C.3     1  UNL1        0.0480
     30 C         145.1438  140.8832  163.2039 C.3     1  UNL1        0.1278
     31 O         146.2790  141.8492  163.0352 O.3     1  UNL1       -0.3830
     32 C         143.8727  140.8687  162.4077 C.3     1  UNL1        0.1020
     33 H         146.9787  141.6404  163.6737 H       1  UNL1        0.2104
@<TRIPOS>BOND
     1    11    12    1
     2    12    13   ar
     3    13    14   ar
     4    14    15   ar
     5    15    16   ar
     6    16     1    1
     7     1     2   ar
     8     2     3   ar
     9     3     4   ar
    10     4    21    1
    11    21    22   ar
    12    22    23   ar
    13    23    26    1
    14    26    27    1
    15    27    28    1
    16    28    29    1
    17    29    30    1
    18    30    31    1
    19    30    32    1
    20    23    24   ar
    21    24    25   ar
    22     4     5   ar
    23     5     6   ar
    24     6     7   ar
    25     7     8   ar
    26     8     9   ar
    27    16    17   ar
    28    17    18   ar
    29    18    19   ar
    30    19    20   ar
    31    20    12   ar
    32    20    15   ar
    33     9     1   ar
    34     8     3    1
    35    25    21   ar
    36    32    27    1
    37    31    33    1
    38     7    10    1
@<TRIPOS>MOLECULE
*****
 33 38 0 0 0
SMALL
GASTEIGER

@<TRIPOS>ATOM
      1 C         142.7330  135.4665  156.4129 C.ar    1  UNL1        0.1640
      2 N         142.6355  136.1346  157.7523 N.ar    1  UNL1       -0.2220
      3 C         142.9452  137.5906  157.5677 C.ar    1  UNL1        0.1344
      4 C         143.0015  138.7354  158.5353 C.ar    1  UNL1        0.1049
      5 C         143.3466  140.1119  158.0493 C.ar    1  UNL1        0.0392
      6 C         143.6354  140.3436  156.5958 C.ar    1  UNL1        0.0751
      7 N         143.5791  139.1989  155.6281 N.ar    1  UNL1       -0.3361
      8 C         143.2340  137.8224  156.1141 C.ar    1  UNL1        0.1615
      9 N         143.1029  136.5096  155.4004 N.ar    1  UNL1       -0.2081
     10 H         143.7687  139.3510  154.6741 H       1  UNL1        0.1675
     11 C         144.3367  129.2426  157.2332 C.3     1  UNL1        0.1305
     12 N         144.1973  130.7361  157.2265 N.ar    1  UNL1       -0.3240
     13 C         145.0690  131.7063  157.9674 C.ar    1  UNL1        0.0760
     14 C         144.5723  133.0914  157.6765 C.ar    1  UNL1        0.0202
     15 C         143.3935  132.9772  156.7558 C.ar    1  UNL1        0.0202
     16 C         142.5012  134.0108  156.1348 C.ar    1  UNL1        0.0373
     17 C         141.3773  133.5887  155.2357 C.ar    1  UNL1        0.0031
     18 C         141.1456  132.1330  154.9576 C.ar    1  UNL1        0.0016
     19 C         142.0378  131.0995  155.5786 C.ar    1  UNL1        0.0172
     20 C         143.1618  131.5216  156.4777 C.ar    1  UNL1        0.0601
     21 N         142.7126  138.5037  159.9889 N.ar    1  UNL1       -0.2268
     22 C         141.3786  138.1520  160.5776 C.ar    1  UNL1        0.0991
     23 C         141.5487  138.0140  162.0615 C.ar    1  UNL1        0.0339
     24 C         142.9878  138.2804  162.3899 C.ar    1  UNL1        0.1191
     25 N         143.7072  138.5830  161.1089 N.ar    1  UNL1       -0.1637
     26 C         140.4690  137.6699  163.0444 C.3     1  UNL1        0.1024
     27 N         139.5113  138.7276  163.5072 N.3     1  UNL1       -0.2667
     28 C         139.4001  139.2669  164.9024 C.3     1  UNL1        0.0750
     29 C         138.3166  140.3042  164.9134 C.3     1  UNL1        0.0480
     30 C         137.7582  140.4059  163.5249 C.3     1  UNL1        0.1278
     31 O         136.6550  141.3214  163.0831 O.3     1  UNL1       -0.3830
     32 C         138.4965  139.4315  162.6558 C.3     1  UNL1        0.1020
     33 H         136.3495  141.8475  163.8386 H       1  UNL1        0.2104
@<TRIPOS>BOND
     1    11    12    1
     2    12    13   ar
     3    13    14   ar
     4    14    15   ar
     5    15    16   ar
     6    16     1    1
     7     1     2   ar
     8     2     3   ar
     9     3     4   ar
    10     4    21    1
    11    21    22   ar
    12    22    23   ar
    13    23    26    1
    14    26    27    1
    15    27    28    1
    16    28    29    1
    17    29    30    1
    18    30    31    1
    19    30    32    1
    20    23    24   ar
    21    24    25   ar
    22     4     5   ar
    23     5     6   ar
    24     6     7   ar
    25     7     8   ar
    26     8     9   ar
    27    16    17   ar
    28    17    18   ar
    29    18    19   ar
    30    19    20   ar
    31    20    12   ar
    32    20    15   ar
    33     9     1   ar
    34     8     3    1
    35    25    21   ar
    36    32    27    1
    37    31    33    1
    38     7    10    1
@<TRIPOS>MOLECULE
*****
 33 38 0 0 0
SMALL
GASTEIGER

@<TRIPOS>ATOM
      1 C         143.5078  134.9168  156.6453 C.ar    1  UNL1        0.1640
      2 N         142.7672  135.8421  157.5646 N.ar    1  UNL1       -0.2220
      3 C         142.9092  137.2369  157.0313 C.ar    1  UNL1        0.1344
      4 C         142.3912  138.5565  157.5215 C.ar    1  UNL1        0.1049
      5 C         142.7016  139.8128  156.7628 C.ar    1  UNL1        0.0392
      6 C         143.5300  139.7494  155.5139 C.ar    1  UNL1        0.0751
      7 N         144.0480  138.4298  155.0237 N.ar    1  UNL1       -0.3361
      8 C         143.7376  137.1736  155.7823 C.ar    1  UNL1        0.1615
      9 N         144.1075  135.7396  155.5438 N.ar    1  UNL1       -0.2081
     10 H         144.5917  138.3882  154.2040 H       1  UNL1        0.1675
     11 C         141.4210  128.9236  155.3381 C.3     1  UNL1        0.1305
     12 N         141.6758  130.3963  155.4654 N.ar    1  UNL1       -0.3240
     13 C         140.8774  131.4885  154.8176 C.ar    1  UNL1        0.0760
     14 C         141.4819  132.8026  155.2147 C.ar    1  UNL1        0.0202
     15 C         142.6540  132.5225  156.1079 C.ar    1  UNL1        0.0202
     16 C         143.6276  133.4295  156.8002 C.ar    1  UNL1        0.0373
     17 C         144.7211  132.8495  157.6475 C.ar    1  UNL1        0.0031
     18 C         144.8409  131.3623  157.8024 C.ar    1  UNL1        0.0016
     19 C         143.8673  130.4553  157.1101 C.ar    1  UNL1        0.0172
     20 C         142.7738  131.0354  156.2629 C.ar    1  UNL1        0.0601
     21 N         141.5628  138.6199  158.7704 N.ar    1  UNL1       -0.2268
     22 C         140.1096  138.9837  158.8470 C.ar    1  UNL1        0.0991
     23 C         139.6909  138.9193  160.2859 C.ar    1  UNL1        0.0339
     24 C         140.8852  138.5157  161.0986 C.ar    1  UNL1        0.1191
     25 N         142.0422  138.3307  160.1619 N.ar    1  UNL1       -0.1637
     26 C         138.3186  139.2078  160.8185 C.3     1  UNL1        0.1024
     27 N         138.0781  140.4358  161.6458 N.3     1  UNL1       -0.2667
     28 C         137.8093  140.4662  163.1212 C.3     1  UNL1        0.0750
     29 C         137.6293  141.8981  163.5301 C.3     1  UNL1        0.0480
     30 C         137.7867  142.7527  162.3074 C.3     1  UNL1        0.1278
     31 O         137.6847  144.2484  162.2580 O.3     1  UNL1       -0.3830
     32 C         138.0641  141.8489  161.1428 C.3     1  UNL1        0.1020
     33 H         137.4989  144.5894  163.1469 H       1  UNL1        0.2104
@<TRIPOS>BOND
     1    11    12    1
     2    12    13   ar
     3    13    14   ar
     4    14    15   ar
     5    15    16   ar
     6    16     1    1
     7     1     2   ar
     8     2     3   ar
     9     3     4   ar
    10     4    21    1
    11    21    22   ar
    12    22    23   ar
    13    23    26    1
    14    26    27    1
    15    27    28    1
    16    28    29    1
    17    29    30    1
    18    30    31    1
    19    30    32    1
    20    23    24   ar
    21    24    25   ar
    22     4     5   ar
    23     5     6   ar
    24     6     7   ar
    25     7     8   ar
    26     8     9   ar
    27    16    17   ar
    28    17    18   ar
    29    18    19   ar
    30    19    20   ar
    31    20    12   ar
    32    20    15   ar
    33     9     1   ar
    34     8     3    1
    35    25    21   ar
    36    32    27    1
    37    31    33    1
    38     7    10    1
@<TRIPOS>MOLECULE
*****
 33 38 0 0 0
SMALL
GASTEIGER

@<TRIPOS>ATOM
      1 C         139.4392  142.4140  164.3119 C.ar    1  UNL1        0.1640
      2 N         140.5380  142.4200  163.2910 N.ar    1  UNL1       -0.2220
      3 C         140.3846  143.6539  162.4521 C.ar    1  UNL1        0.1344
      4 C         141.1777  144.1864  161.2955 C.ar    1  UNL1        0.1049
      5 C         140.7769  145.4755  160.6415 C.ar    1  UNL1        0.0392
      6 C         139.5832  146.2321  161.1440 C.ar    1  UNL1        0.0751
      7 N         138.7902  145.6997  162.3006 N.ar    1  UNL1       -0.3361
      8 C         139.1909  144.4106  162.9546 C.ar    1  UNL1        0.1615
      9 N         138.6066  143.6443  164.1040 N.ar    1  UNL1       -0.2081
     10 H         138.0067  146.1963  162.6304 H       1  UNL1        0.1675
     11 C         140.5532  140.0045  170.2225 C.3     1  UNL1        0.1305
     12 N         140.4829  140.7801  168.9405 N.ar    1  UNL1       -0.3240
     13 C         141.2097  142.0580  168.6422 C.ar    1  UNL1        0.0760
     14 C         140.8495  142.4817  167.2491 C.ar    1  UNL1        0.0202
     15 C         139.9001  141.4657  166.6865 C.ar    1  UNL1        0.0202
     16 C         139.2126  141.3623  165.3573 C.ar    1  UNL1        0.0373
     17 C         138.2986  140.2073  165.0735 C.ar    1  UNL1        0.0031
     18 C         138.0721  139.1558  166.1189 C.ar    1  UNL1        0.0016
     19 C         138.7595  139.2591  167.4480 C.ar    1  UNL1        0.0172
     20 C         139.6735  140.4141  167.7318 C.ar    1  UNL1        0.0601
     21 N         142.3714  143.4298  160.7930 N.ar    1  UNL1       -0.2268
     22 C         142.3746  142.4290  159.6756 C.ar    1  UNL1        0.0991
     23 C         143.7766  141.9219  159.5117 C.ar    1  UNL1        0.0339
     24 C         144.6400  142.6091  160.5278 C.ar    1  UNL1        0.1191
     25 N         143.7714  143.5410  161.3197 N.ar    1  UNL1       -0.1637
     26 C         144.2349  140.9057  158.5079 C.3     1  UNL1        0.1024
     27 N         143.5937  139.5503  158.4664 N.3     1  UNL1       -0.2667
     28 C         143.3114  138.6719  159.6490 C.3     1  UNL1        0.0750
     29 C         142.6654  137.4141  159.1485 C.3     1  UNL1        0.0480
     30 C         142.5485  137.5151  157.6565 C.3     1  UNL1        0.1278
     31 O         141.9610  136.4778  156.7459 O.3     1  UNL1       -0.3830
     32 C         143.1222  138.8353  157.2349 C.3     1  UNL1        0.1020
     33 H         141.6623  135.7187  157.2707 H       1  UNL1        0.2104
@<TRIPOS>BOND
     1    11    12    1
     2    12    13   ar
     3    13    14   ar
     4    14    15   ar
     5    15    16   ar
     6    16     1    1
     7     1     2   ar
     8     2     3   ar
     9     3     4   ar
    10     4    21    1
    11    21    22   ar
    12    22    23   ar
    13    23    26    1
    14    26    27    1
    15    27    28    1
    16    28    29    1
    17    29    30    1
    18    30    31    1
    19    30    32    1
    20    23    24   ar
    21    24    25   ar
    22     4     5   ar
    23     5     6   ar
    24     6     7   ar
    25     7     8   ar
    26     8     9   ar
    27    16    17   ar
    28    17    18   ar
    29    18    19   ar
    30    19    20   ar
    31    20    12   ar
    32    20    15   ar
    33     9     1   ar
    34     8     3    1
    35    25    21   ar
    36    32    27    1
    37    31    33    1
    38     7    10    1
@<TRIPOS>MOLECULE
*****
 33 38 0 0 0
SMALL
GASTEIGER

@<TRIPOS>ATOM
      1 C         142.9528  135.1578  156.1364 C.ar    1  UNL1        0.1640
      2 N         142.2908  136.0950  157.1025 N.ar    1  UNL1       -0.2220
      3 C         142.9127  137.4495  156.9343 C.ar    1  UNL1        0.1344
      4 C         142.6614  138.7612  157.6173 C.ar    1  UNL1        0.1049
      5 C         143.4565  139.9728  157.2301 C.ar    1  UNL1        0.0392
      6 C         144.5029  139.8728  156.1601 C.ar    1  UNL1        0.0751
      7 N         144.7542  138.5611  155.4771 N.ar    1  UNL1       -0.3361
      8 C         143.9591  137.3495  155.8642 C.ar    1  UNL1        0.1615
      9 N         143.9839  135.9332  155.3711 N.ar    1  UNL1       -0.2081
     10 H         145.4409  138.4955  154.7748 H       1  UNL1        0.1675
     11 C         144.1792  128.9324  157.4483 C.3     1  UNL1        0.1305
     12 N         144.1279  130.4265  157.3268 N.ar    1  UNL1       -0.3240
     13 C         145.0472  131.3984  158.0053 C.ar    1  UNL1        0.0760
     14 C         144.6358  132.7837  157.6032 C.ar    1  UNL1        0.0202
     15 C         143.4622  132.6679  156.6762 C.ar    1  UNL1        0.0202
     16 C         142.6388  133.7009  155.9655 C.ar    1  UNL1        0.0373
     17 C         141.5016  133.2771  155.0841 C.ar    1  UNL1        0.0031
     18 C         141.1877  131.8204  154.9133 C.ar    1  UNL1        0.0016
     19 C         142.0111  130.7874  155.6239 C.ar    1  UNL1        0.0172
     20 C         143.1483  131.2112  156.5054 C.ar    1  UNL1        0.0601
     21 N         141.6151  138.8612  158.6874 N.ar    1  UNL1       -0.2268
     22 C         140.2647  139.4982  158.5433 C.ar    1  UNL1        0.0991
     23 C         139.5505  139.3725  159.8563 C.ar    1  UNL1        0.0339
     24 C         140.4594  138.6578  160.8119 C.ar    1  UNL1        0.1191
     25 N         141.7354  138.3419  160.0894 N.ar    1  UNL1       -0.1637
     26 C         138.1696  139.8735  160.1603 C.3     1  UNL1        0.1024
     27 N         137.9691  140.9345  161.2016 N.3     1  UNL1       -0.2667
     28 C         137.6487  140.7008  162.6482 C.3     1  UNL1        0.0750
     29 C         137.5354  142.0373  163.3196 C.3     1  UNL1        0.0480
     30 C         137.7858  143.0971  162.2879 C.3     1  UNL1        0.1278
     31 O         137.7707  144.5784  162.5239 O.3     1  UNL1       -0.3830
     32 C         138.0538  142.4155  160.9789 C.3     1  UNL1        0.1020
     33 H         137.5721  144.7551  163.4568 H       1  UNL1        0.2104
@<TRIPOS>BOND
     1    11    12    1
     2    12    13   ar
     3    13    14   ar
     4    14    15   ar
     5    15    16   ar
     6    16     1    1
     7     1     2   ar
     8     2     3   ar
     9     3     4   ar
    10     4    21    1
    11    21    22   ar
    12    22    23   ar
    13    23    26    1
    14    26    27    1
    15    27    28    1
    16    28    29    1
    17    29    30    1
    18    30    31    1
    19    30    32    1
    20    23    24   ar
    21    24    25   ar
    22     4     5   ar
    23     5     6   ar
    24     6     7   ar
    25     7     8   ar
    26     8     9   ar
    27    16    17   ar
    28    17    18   ar
    29    18    19   ar
    30    19    20   ar
    31    20    12   ar
    32    20    15   ar
    33     9     1   ar
    34     8     3    1
    35    25    21   ar
    36    32    27    1
    37    31    33    1
    38     7    10    1
@<TRIPOS>MOLECULE
*****
 33 38 0 0 0
SMALL
GASTEIGER

@<TRIPOS>ATOM
      1 C         139.7424  145.7058  155.8628 C.ar    1  UNL1        0.1640
      2 N         139.9598  145.6164  157.3442 N.ar    1  UNL1       -0.2220
      3 C         139.7157  144.1970  157.7637 C.ar    1  UNL1        0.1344
      4 C         139.7811  143.5201  159.1007 C.ar    1  UNL1        0.1049
      5 C         139.4784  142.0554  159.2153 C.ar    1  UNL1        0.0392
      6 C         139.1102  141.2677  157.9931 C.ar    1  UNL1        0.0751
      7 N         139.0448  141.9446  156.6561 N.ar    1  UNL1       -0.3361
      8 C         139.3475  143.4092  156.5414 C.ar    1  UNL1        0.1615
      9 N         139.3640  144.3418  155.3666 N.ar    1  UNL1       -0.2081
     10 H         138.8031  141.4276  155.8539 H       1  UNL1        0.1675
     11 C         138.6584  152.0223  154.9097 C.3     1  UNL1        0.1305
     12 N         138.7606  150.6040  155.3873 N.ar    1  UNL1       -0.3240
     13 C         138.2077  150.0647  156.6732 C.ar    1  UNL1        0.0760
     14 C         138.5389  148.6035  156.7435 C.ar    1  UNL1        0.0202
     15 C         139.2966  148.2397  155.5010 C.ar    1  UNL1        0.0202
     16 C         139.8794  146.9423  155.0246 C.ar    1  UNL1        0.0373
     17 C         140.5992  146.8813  153.7100 C.ar    1  UNL1        0.0031
     18 C         140.7362  148.1177  152.8719 C.ar    1  UNL1        0.0016
     19 C         140.1534  149.4151  153.3483 C.ar    1  UNL1        0.0172
     20 C         139.4335  149.4761  154.6629 C.ar    1  UNL1        0.0601
     21 N         140.1493  144.3079  160.3229 N.ar    1  UNL1       -0.2268
     22 C         141.2483  143.9754  161.2881 C.ar    1  UNL1        0.0991
     23 C         141.2613  145.0285  162.3563 C.ar    1  UNL1        0.0339
     24 C         140.1703  146.0117  162.0512 C.ar    1  UNL1        0.1191
     25 N         139.4831  145.5663  160.7945 N.ar    1  UNL1       -0.1637
     26 C         142.2004  145.0878  163.5245 C.3     1  UNL1        0.1024
     27 N         143.1595  143.9617  163.7737 N.3     1  UNL1       -0.2667
     28 C         143.0379  142.9214  164.8474 C.3     1  UNL1        0.0750
     29 C         144.2118  141.9950  164.7302 C.3     1  UNL1        0.0480
     30 C         145.0589  142.4627  163.5840 C.3     1  UNL1        0.1278
     31 O         146.3328  141.8266  163.1120 O.3     1  UNL1       -0.3830
     32 C         144.4086  143.6783  162.9929 C.3     1  UNL1        0.1020
     33 H         146.5332  141.0552  163.6649 H       1  UNL1        0.2104
@<TRIPOS>BOND
     1    11    12    1
     2    12    13   ar
     3    13    14   ar
     4    14    15   ar
     5    15    16   ar
     6    16     1    1
     7     1     2   ar
     8     2     3   ar
     9     3     4   ar
    10     4    21    1
    11    21    22   ar
    12    22    23   ar
    13    23    26    1
    14    26    27    1
    15    27    28    1
    16    28    29    1
    17    29    30    1
    18    30    31    1
    19    30    32    1
    20    23    24   ar
    21    24    25   ar
    22     4     5   ar
    23     5     6   ar
    24     6     7   ar
    25     7     8   ar
    26     8     9   ar
    27    16    17   ar
    28    17    18   ar
    29    18    19   ar
    30    19    20   ar
    31    20    12   ar
    32    20    15   ar
    33     9     1   ar
    34     8     3    1
    35    25    21   ar
    36    32    27    1
    37    31    33    1
    38     7    10    1
@<TRIPOS>MOLECULE
*****
 33 38 0 0 0
SMALL
GASTEIGER

@<TRIPOS>ATOM
      1 C         139.4761  142.3876  164.2567 C.ar    1  UNL1        0.1640
      2 N         140.5630  142.3740  163.2230 N.ar    1  UNL1       -0.2220
      3 C         140.4149  143.6048  162.3786 C.ar    1  UNL1        0.1344
      4 C         141.2008  144.1205  161.2097 C.ar    1  UNL1        0.1049
      5 C         140.8084  145.4107  160.5526 C.ar    1  UNL1        0.0392
      6 C         139.6301  146.1849  161.0644 C.ar    1  UNL1        0.0751
      7 N         138.8441  145.6692  162.2333 N.ar    1  UNL1       -0.3361
      8 C         139.2365  144.3791  162.8904 C.ar    1  UNL1        0.1615
      9 N         138.6564  143.6268  164.0511 N.ar    1  UNL1       -0.2081
     10 H         138.0707  146.1774  162.5692 H       1  UNL1        0.1675
     11 C         140.6576  139.9794  170.1547 C.3     1  UNL1        0.1305
     12 N         140.5778  140.7512  168.8710 N.ar    1  UNL1       -0.3240
     13 C         141.3245  142.0127  168.5527 C.ar    1  UNL1        0.0760
     14 C         140.9455  142.4381  167.1652 C.ar    1  UNL1        0.0202
     15 C         139.9646  141.4395  166.6259 C.ar    1  UNL1        0.0202
     16 C         139.2489  141.3449  165.3110 C.ar    1  UNL1        0.0373
     17 C         138.3061  140.2078  165.0504 C.ar    1  UNL1        0.0031
     18 C         138.0789  139.1653  166.1046 C.ar    1  UNL1        0.0016
     19 C         138.7946  139.2599  167.4195 C.ar    1  UNL1        0.0172
     20 C         139.7374  140.3970  167.6801 C.ar    1  UNL1        0.0601
     21 N         142.3792  143.3463  160.6978 N.ar    1  UNL1       -0.2268
     22 C         142.3672  142.3762  159.5538 C.ar    1  UNL1        0.0991
     23 C         143.7570  141.8366  159.3891 C.ar    1  UNL1        0.0339
     24 C         144.6279  142.4730  160.4314 C.ar    1  UNL1        0.1191
     25 N         143.7764  143.4061  161.2402 N.ar    1  UNL1       -0.1637
     26 C         144.1984  140.8360  158.3624 C.3     1  UNL1        0.1024
     27 N         145.1238  141.2531  157.2580 N.3     1  UNL1       -0.2667
     28 C         146.1014  142.3896  157.3089 C.3     1  UNL1        0.0750
     29 C         146.8159  142.4458  155.9912 C.3     1  UNL1        0.0480
     30 C         146.2799  141.3440  155.1259 C.3     1  UNL1        0.1278
     31 O         146.7136  141.0339  153.7238 O.3     1  UNL1       -0.3830
     32 C         145.2341  140.6069  155.9088 C.3     1  UNL1        0.1020
     33 H         147.4031  141.6600  153.4527 H       1  UNL1        0.2104
@<TRIPOS>BOND
     1    11    12    1
     2    12    13   ar
     3    13    14   ar
     4    14    15   ar
     5    15    16   ar
     6    16     1    1
     7     1     2   ar
     8     2     3   ar
     9     3     4   ar
    10     4    21    1
    11    21    22   ar
    12    22    23   ar
    13    23    26    1
    14    26    27    1
    15    27    28    1
    16    28    29    1
    17    29    30    1
    18    30    31    1
    19    30    32    1
    20    23    24   ar
    21    24    25   ar
    22     4     5   ar
    23     5     6   ar
    24     6     7   ar
    25     7     8   ar
    26     8     9   ar
    27    16    17   ar
    28    17    18   ar
    29    18    19   ar
    30    19    20   ar
    31    20    12   ar
    32    20    15   ar
    33     9     1   ar
    34     8     3    1
    35    25    21   ar
    36    32    27    1
    37    31    33    1
    38     7    10    1
@<TRIPOS>MOLECULE
*****
 33 38 0 0 0
SMALL
GASTEIGER

@<TRIPOS>ATOM
      1 C         142.7495  134.6609  155.8334 C.ar    1  UNL1        0.1640
      2 N         142.4666  135.5788  156.9855 N.ar    1  UNL1       -0.2220
      3 C         142.8904  136.9624  156.5909 C.ar    1  UNL1        0.1344
      4 C         142.8505  138.2714  157.3223 C.ar    1  UNL1        0.1049
      5 C         143.3556  139.5177  156.6577 C.ar    1  UNL1        0.0392
      6 C         143.9005  139.4550  155.2616 C.ar    1  UNL1        0.0751
      7 N         143.9404  138.1460  154.5301 N.ar    1  UNL1       -0.3361
      8 C         143.4353  136.8998  155.1947 C.ar    1  UNL1        0.1615
      9 N         143.3483  135.4774  154.7266 N.ar    1  UNL1       -0.2081
     10 H         144.2980  138.1049  153.6138 H       1  UNL1        0.1675
     11 C         144.1849  128.6168  157.6744 C.3     1  UNL1        0.1305
     12 N         144.0849  130.0921  157.4224 N.ar    1  UNL1       -0.3240
     13 C         144.9782  131.1482  158.0028 C.ar    1  UNL1        0.0760
     14 C         144.5195  132.4791  157.4849 C.ar    1  UNL1        0.0202
     15 C         143.3427  132.2455  156.5845 C.ar    1  UNL1        0.0202
     16 C         142.4810  133.1856  155.7948 C.ar    1  UNL1        0.0373
     17 C         141.3507  132.6505  154.9664 C.ar    1  UNL1        0.0031
     18 C         141.0822  131.1753  154.9278 C.ar    1  UNL1        0.0016
     19 C         141.9439  130.2352  155.7176 C.ar    1  UNL1        0.0172
     20 C         143.0741  130.7703  156.5459 C.ar    1  UNL1        0.0601
     21 N         142.3056  138.3341  158.7184 N.ar    1  UNL1       -0.2268
     22 C         143.1052  138.2241  159.9828 C.ar    1  UNL1        0.0991
     23 C         142.1591  138.3398  161.1410 C.ar    1  UNL1        0.0339
     24 C         140.7749  138.5213  160.5925 C.ar    1  UNL1        0.1191
     25 N         140.8654  138.5177  159.0953 N.ar    1  UNL1       -0.1637
     26 C         142.5320  138.2839  162.5929 C.3     1  UNL1        0.1024
     27 N         143.3840  139.3642  163.1906 N.3     1  UNL1       -0.2667
     28 C         143.1494  140.0457  164.5060 C.3     1  UNL1        0.0750
     29 C         144.2407  141.0552  164.7061 C.3     1  UNL1        0.0480
     30 C         145.1497  140.9976  163.5143 C.3     1  UNL1        0.1278
     31 O         146.3734  141.8377  163.2973 O.3     1  UNL1       -0.3830
     32 C         144.6203  139.9524  162.5776 C.3     1  UNL1        0.1020
     33 H         146.4941  142.4343  164.0525 H       1  UNL1        0.2104
@<TRIPOS>BOND
     1    11    12    1
     2    12    13   ar
     3    13    14   ar
     4    14    15   ar
     5    15    16   ar
     6    16     1    1
     7     1     2   ar
     8     2     3   ar
     9     3     4   ar
    10     4    21    1
    11    21    22   ar
    12    22    23   ar
    13    23    26    1
    14    26    27    1
    15    27    28    1
    16    28    29    1
    17    29    30    1
    18    30    31    1
    19    30    32    1
    20    23    24   ar
    21    24    25   ar
    22     4     5   ar
    23     5     6   ar
    24     6     7   ar
    25     7     8   ar
    26     8     9   ar
    27    16    17   ar
    28    17    18   ar
    29    18    19   ar
    30    19    20   ar
    31    20    12   ar
    32    20    15   ar
    33     9     1   ar
    34     8     3    1
    35    25    21   ar
    36    32    27    1
    37    31    33    1
    38     7    10    1
@<TRIPOS>MOLECULE
*****
 33 38 0 0 0
SMALL
GASTEIGER

@<TRIPOS>ATOM
      1 C         143.3467  141.6147  160.3122 C.ar    1  UNL1        0.1640
      2 N         143.3287  141.1235  161.7293 N.ar    1  UNL1       -0.2220
      3 C         143.4291  142.3155  162.6344 C.ar    1  UNL1        0.1344
      4 C         143.4580  142.4414  164.1288 C.ar    1  UNL1        0.1049
      5 C         143.5669  143.7953  164.7654 C.ar    1  UNL1        0.0392
      6 C         143.6470  145.0232  163.9076 C.ar    1  UNL1        0.0751
      7 N         143.6182  144.8972  162.4131 N.ar    1  UNL1       -0.3361
      8 C         143.5092  143.5434  161.7765 C.ar    1  UNL1        0.1615
      9 N         143.4583  143.1103  160.3414 N.ar    1  UNL1       -0.2081
     10 H         143.6707  145.7031  161.8501 H       1  UNL1        0.1675
     11 C         145.3990  140.0978  154.3567 C.3     1  UNL1        0.1305
     12 N         145.1329  140.6639  155.7200 N.ar    1  UNL1       -0.3240
     13 C         145.8474  141.8238  156.3479 C.ar    1  UNL1        0.0760
     14 C         145.2617  142.0462  157.7108 C.ar    1  UNL1        0.0202
     15 C         144.1852  141.0238  157.9252 C.ar    1  UNL1        0.0202
     16 C         143.2671  140.7603  159.0818 C.ar    1  UNL1        0.0373
     17 C         142.2696  139.6426  159.0081 C.ar    1  UNL1        0.0031
     18 C         142.1900  138.7883  157.7777 C.ar    1  UNL1        0.0016
     19 C         143.1081  139.0518  156.6211 C.ar    1  UNL1        0.0172
     20 C         144.1056  140.1695  156.6948 C.ar    1  UNL1        0.0601
     21 N         143.3779  141.2136  164.9866 N.ar    1  UNL1       -0.2268
     22 C         142.8546  141.1518  166.3911 C.ar    1  UNL1        0.0991
     23 C         142.9604  139.7320  166.8630 C.ar    1  UNL1        0.0339
     24 C         143.5490  138.9162  165.7504 C.ar    1  UNL1        0.1191
     25 N         143.8070  139.8319  164.5907 N.ar    1  UNL1       -0.1637
     26 C         142.5496  139.2181  168.2111 C.3     1  UNL1        0.1024
     27 N         141.5675  139.9907  169.0409 N.3     1  UNL1       -0.2667
     28 C         140.1004  140.1350  168.7641 C.3     1  UNL1        0.0750
     29 C         139.5064  140.9882  169.8454 C.3     1  UNL1        0.0480
     30 C         140.6064  141.3713  170.7905 C.3     1  UNL1        0.1278
     31 O         140.4584  142.2216  172.0173 O.3     1  UNL1       -0.3830
     32 C         141.8803  140.7549  170.2933 C.3     1  UNL1        0.1020
     33 H         139.5320  142.4928  172.1130 H       1  UNL1        0.2104
@<TRIPOS>BOND
     1    11    12    1
     2    12    13   ar
     3    13    14   ar
     4    14    15   ar
     5    15    16   ar
     6    16     1    1
     7     1     2   ar
     8     2     3   ar
     9     3     4   ar
    10     4    21    1
    11    21    22   ar
    12    22    23   ar
    13    23    26    1
    14    26    27    1
    15    27    28    1
    16    28    29    1
    17    29    30    1
    18    30    31    1
    19    30    32    1
    20    23    24   ar
    21    24    25   ar
    22     4     5   ar
    23     5     6   ar
    24     6     7   ar
    25     7     8   ar
    26     8     9   ar
    27    16    17   ar
    28    17    18   ar
    29    18    19   ar
    30    19    20   ar
    31    20    12   ar
    32    20    15   ar
    33     9     1   ar
    34     8     3    1
    35    25    21   ar
    36    32    27    1
    37    31    33    1
    38     7    10    1
