@<TRIPOS>MOLECULE
*****
 27 30 0 0 0
SMALL
GASTEIGER

@<TRIPOS>ATOM
      1 C         140.2658  142.0168  167.0440 C.ar    1  UNL1        0.0890
      2 C         140.0107  142.9839  165.9262 C.ar    1  UNL1        0.0401
      3 C         139.1360  142.5854  164.7746 C.ar    1  UNL1        0.1051
      4 N         138.8810  143.5526  163.6568 N.ar    1  UNL1       -0.2405
      5 C         138.0063  143.1541  162.5052 C.ar    1  UNL1        0.1195
      6 C         137.3866  141.7885  162.4715 C.ar    1  UNL1        0.1197
      7 N         137.6416  140.8214  163.5893 N.ar    1  UNL1       -0.2360
      8 C         138.5163  141.2198  164.7409 C.ar    1  UNL1        0.1519
      9 C         138.7714  140.2527  165.8588 C.ar    1  UNL1        0.2445
     10 N         139.6461  140.6512  167.0103 N.ar    1  UNL1       -0.2102
     11 C         144.4720  142.6402  170.1746 C.3     1  UNL1        0.1538
     12 N         143.0739  142.7017  169.6346 N.ar    1  UNL1       -0.2473
     13 C         142.6049  142.1210  168.3334 C.ar    1  UNL1        0.0982
     14 C         141.1405  142.4152  168.1956 C.ar    1  UNL1        0.0574
     15 C         140.7044  143.1777  169.4115 C.ar    1  UNL1        0.1231
     16 N         141.8993  143.3549  170.3008 N.ar    1  UNL1       -0.1675
     17 O         138.1517  138.8871  165.8251 O.3     1  UNL1       -0.4589
     18 C         138.9575  137.7090  165.3639 C.3     1  UNL1        0.2139
     19 C         139.6916  137.7678  164.0571 C.3     1  UNL1        0.1206
     20 C         138.9312  137.6993  162.7660 C.3     1  UNL1        0.0778
     21 N         139.6653  137.7580  161.4592 N.3     1  UNL1       -0.2971
     22 C         141.1598  137.8853  161.4435 C.3     1  UNL1        0.0742
     23 C         141.9202  137.9538  162.7347 C.3     1  UNL1        0.0838
     24 C         141.1861  137.8950  164.0415 C.3     1  UNL1        0.2699
     25 F         140.9416  137.8785  165.5213 F       1  UNL1       -0.2041
     26 F         142.5957  138.0165  164.5398 F       1  UNL1       -0.2041
     27 H         139.2960  138.5609  160.9499 H       1  UNL1        0.1233
@<TRIPOS>BOND
     1    11    12    1
     2    12    13   ar
     3    13    14   ar
     4    14     1    1
     5     1     2   ar
     6     2     3   ar
     7     3     4   ar
     8     4     5   ar
     9     5     6   ar
    10     6     7   ar
    11     7     8   ar
    12     8     9   ar
    13     9    17    1
    14    17    18    1
    15    18    19    1
    16    19    20    1
    17    20    21    1
    18    21    22    1
    19    22    23    1
    20    23    24    1
    21    24    25    1
    22    24    26    1
    23     9    10   ar
    24    14    15   ar
    25    15    16   ar
    26    16    12   ar
    27    10     1   ar
    28     8     3   ar
    29    24    19    1
    30    21    27    1
@<TRIPOS>MOLECULE
*****
 27 30 0 0 0
SMALL
GASTEIGER

@<TRIPOS>ATOM
      1 C         139.3754  142.5414  164.8902 C.ar    1  UNL1        0.0890
      2 C         140.1746  142.9147  166.1034 C.ar    1  UNL1        0.0401
      3 C         140.2945  141.9524  167.2479 C.ar    1  UNL1        0.1051
      4 N         141.0937  142.3258  168.4611 N.ar    1  UNL1       -0.2405
      5 C         141.2135  141.3635  169.6054 C.ar    1  UNL1        0.1195
      6 C         140.5342  140.0279  169.5366 C.ar    1  UNL1        0.1197
      7 N         139.7351  139.6546  168.3234 N.ar    1  UNL1       -0.2360
      8 C         139.6152  140.6168  167.1791 C.ar    1  UNL1        0.1519
      9 C         138.8160  140.2435  165.9658 C.ar    1  UNL1        0.2445
     10 N         138.6961  141.2058  164.8214 N.ar    1  UNL1       -0.2102
     11 C         140.4987  145.4064  160.5994 C.3     1  UNL1        0.1538
     12 N         139.7719  144.8205  161.7735 N.ar    1  UNL1       -0.2473
     13 C         140.3190  143.8041  162.7314 C.ar    1  UNL1        0.0982
     14 C         139.2555  143.5037  163.7457 C.ar    1  UNL1        0.0574
     15 C         138.0512  144.3343  163.4147 C.ar    1  UNL1        0.1231
     16 N         138.3703  145.1482  162.1958 N.ar    1  UNL1       -0.1675
     17 O         138.1367  138.9079  165.8969 O.3     1  UNL1       -0.4589
     18 C         138.8640  137.7249  165.3300 C.3     1  UNL1        0.2139
     19 C         139.4806  137.8072  163.9651 C.3     1  UNL1        0.1206
     20 C         138.6052  137.8468  162.7477 C.3     1  UNL1        0.0778
     21 N         139.2219  137.9290  161.3828 N.3     1  UNL1       -0.2971
     22 C         140.7140  137.9717  161.2353 C.3     1  UNL1        0.0742
     23 C         141.5895  137.9321  162.4527 C.3     1  UNL1        0.0838
     24 C         140.9728  137.8498  163.8176 C.3     1  UNL1        0.2699
     25 F         140.8608  137.7732  165.3114 F       1  UNL1       -0.2041
     26 F         142.4260  137.8659  164.1888 F       1  UNL1       -0.2041
     27 H         138.8585  138.7761  160.9461 H       1  UNL1        0.1233
@<TRIPOS>BOND
     1    11    12    1
     2    12    13   ar
     3    13    14   ar
     4    14     1    1
     5     1     2   ar
     6     2     3   ar
     7     3     4   ar
     8     4     5   ar
     9     5     6   ar
    10     6     7   ar
    11     7     8   ar
    12     8     9   ar
    13     9    17    1
    14    17    18    1
    15    18    19    1
    16    19    20    1
    17    20    21    1
    18    21    22    1
    19    22    23    1
    20    23    24    1
    21    24    25    1
    22    24    26    1
    23     9    10   ar
    24    14    15   ar
    25    15    16   ar
    26    16    12   ar
    27    10     1   ar
    28     8     3   ar
    29    24    19    1
    30    21    27    1
@<TRIPOS>MOLECULE
*****
 27 30 0 0 0
SMALL
GASTEIGER

@<TRIPOS>ATOM
      1 C         142.9201  141.9340  165.2746 C.ar    1  UNL1        0.0890
      2 C         143.4726  142.3223  166.6139 C.ar    1  UNL1        0.0401
      3 C         142.5869  142.3047  167.8244 C.ar    1  UNL1        0.1051
      4 N         143.1394  142.6930  169.1638 N.ar    1  UNL1       -0.2405
      5 C         142.2537  142.6753  170.3742 C.ar    1  UNL1        0.1195
      6 C         140.8154  142.2694  170.2453 C.ar    1  UNL1        0.1197
      7 N         140.2629  141.8811  168.9059 N.ar    1  UNL1       -0.2360
      8 C         141.1486  141.8988  167.6955 C.ar    1  UNL1        0.1519
      9 C         140.5961  141.5105  166.3561 C.ar    1  UNL1        0.2445
     10 N         141.4818  141.5281  165.1457 N.ar    1  UNL1       -0.2102
     11 C         144.6363  142.5238  160.3160 C.3     1  UNL1        0.1538
     12 N         144.5946  142.2228  161.7848 N.ar    1  UNL1       -0.2473
     13 C         143.3974  142.3568  162.6788 C.ar    1  UNL1        0.0982
     14 C         143.8058  141.9517  164.0641 C.ar    1  UNL1        0.0574
     15 C         145.2552  141.5673  164.0265 C.ar    1  UNL1        0.1231
     16 N         145.7428  141.7348  162.6178 N.ar    1  UNL1       -0.1675
     17 O         139.1578  141.1046  166.2272 O.3     1  UNL1       -0.4589
     18 C         138.8026  139.7939  165.5899 C.3     1  UNL1        0.2139
     19 C         138.3692  139.7509  164.1545 C.3     1  UNL1        0.1206
     20 C         137.6629  140.9274  163.5488 C.3     1  UNL1        0.0778
     21 N         137.2294  140.8843  162.1134 N.3     1  UNL1       -0.2971
     22 C         137.5024  139.6649  161.2838 C.3     1  UNL1        0.0742
     23 C         138.2088  138.4883  161.8895 C.3     1  UNL1        0.0838
     24 C         138.6422  138.5313  163.3249 C.3     1  UNL1        0.2699
     25 F         139.2428  138.0987  164.6295 F       1  UNL1       -0.2041
     26 F         139.1237  137.1616  162.9483 F       1  UNL1       -0.2041
     27 H         137.6850  141.6674  161.6447 H       1  UNL1        0.1233
@<TRIPOS>BOND
     1    11    12    1
     2    12    13   ar
     3    13    14   ar
     4    14     1    1
     5     1     2   ar
     6     2     3   ar
     7     3     4   ar
     8     4     5   ar
     9     5     6   ar
    10     6     7   ar
    11     7     8   ar
    12     8     9   ar
    13     9    17    1
    14    17    18    1
    15    18    19    1
    16    19    20    1
    17    20    21    1
    18    21    22    1
    19    22    23    1
    20    23    24    1
    21    24    25    1
    22    24    26    1
    23     9    10   ar
    24    14    15   ar
    25    15    16   ar
    26    16    12   ar
    27    10     1   ar
    28     8     3   ar
    29    24    19    1
    30    21    27    1
@<TRIPOS>MOLECULE
*****
 27 30 0 0 0
SMALL
GASTEIGER

@<TRIPOS>ATOM
      1 C         139.8302  142.6831  165.4746 C.ar    1  UNL1        0.0890
      2 C         140.0443  143.2569  166.8439 C.ar    1  UNL1        0.0401
      3 C         140.5320  142.3781  167.9575 C.ar    1  UNL1        0.1051
      4 N         140.7460  142.9519  169.3267 N.ar    1  UNL1       -0.2405
      5 C         141.2337  142.0731  170.4403 C.ar    1  UNL1        0.1195
      6 C         141.5073  140.6206  170.1845 C.ar    1  UNL1        0.1197
      7 N         141.2932  140.0469  168.8152 N.ar    1  UNL1       -0.2360
      8 C         140.8056  140.9256  167.7017 C.ar    1  UNL1        0.1519
      9 C         140.5915  140.3519  166.3324 C.ar    1  UNL1        0.2445
     10 N         140.1038  141.2306  165.2188 N.ar    1  UNL1       -0.2102
     11 C         139.6555  146.3552  161.6843 C.3     1  UNL1        0.1538
     12 N         139.2623  145.2498  162.6188 N.ar    1  UNL1       -0.2473
     13 C         140.1402  144.6214  163.6602 C.ar    1  UNL1        0.0982
     14 C         139.3425  143.5619  164.3610 C.ar    1  UNL1        0.0574
     15 C         137.9717  143.5353  163.7527 C.ar    1  UNL1        0.1231
     16 N         137.9220  144.5785  162.6760 N.ar    1  UNL1       -0.1675
     17 O         140.8651  138.8994  166.0766 O.3     1  UNL1       -0.4589
     18 C         142.2140  138.4656  165.5844 C.3     1  UNL1        0.2139
     19 C         142.4522  138.2800  164.1151 C.3     1  UNL1        0.1206
     20 C         141.4845  137.4809  163.2935 C.3     1  UNL1        0.0778
     21 N         141.7227  137.2953  161.8242 N.3     1  UNL1       -0.2971
     22 C         142.9286  137.9087  161.1766 C.3     1  UNL1        0.0742
     23 C         143.8963  138.7079  161.9982 C.3     1  UNL1        0.0838
     24 C         143.6581  138.8935  163.4675 C.3     1  UNL1        0.2699
     25 F         143.8635  139.3468  164.8824 F       1  UNL1       -0.2041
     26 F         144.9353  139.6644  163.3112 F       1  UNL1       -0.2041
     27 H         140.9062  137.6729  161.3435 H       1  UNL1        0.1233
@<TRIPOS>BOND
     1    11    12    1
     2    12    13   ar
     3    13    14   ar
     4    14     1    1
     5     1     2   ar
     6     2     3   ar
     7     3     4   ar
     8     4     5   ar
     9     5     6   ar
    10     6     7   ar
    11     7     8   ar
    12     8     9   ar
    13     9    17    1
    14    17    18    1
    15    18    19    1
    16    19    20    1
    17    20    21    1
    18    21    22    1
    19    22    23    1
    20    23    24    1
    21    24    25    1
    22    24    26    1
    23     9    10   ar
    24    14    15   ar
    25    15    16   ar
    26    16    12   ar
    27    10     1   ar
    28     8     3   ar
    29    24    19    1
    30    21    27    1
@<TRIPOS>MOLECULE
*****
 27 30 0 0 0
SMALL
GASTEIGER

@<TRIPOS>ATOM
      1 C         140.0431  139.9551  166.4927 C.ar    1  UNL1        0.0890
      2 C         141.2459  139.2845  165.8980 C.ar    1  UNL1        0.0401
      3 C         141.2681  138.9413  164.4380 C.ar    1  UNL1        0.1051
      4 N         142.4709  138.2707  163.8433 N.ar    1  UNL1       -0.2405
      5 C         142.4930  137.9275  162.3833 C.ar    1  UNL1        0.1195
      6 C         141.3123  138.2548  161.5180 C.ar    1  UNL1        0.1197
      7 N         140.1095  138.9254  162.1126 N.ar    1  UNL1       -0.2360
      8 C         140.0874  139.2686  163.5726 C.ar    1  UNL1        0.1519
      9 C         138.8846  139.9392  164.1673 C.ar    1  UNL1        0.2445
     10 N         138.8625  140.2825  165.6273 N.ar    1  UNL1       -0.2102
     11 C         141.4368  141.8029  171.2387 C.3     1  UNL1        0.1538
     12 N         140.6616  141.1477  170.1342 N.ar    1  UNL1       -0.2473
     13 C         141.0996  141.0197  168.7052 C.ar    1  UNL1        0.0982
     14 C         140.0210  140.2984  167.9527 C.ar    1  UNL1        0.0574
     15 C         138.9164  139.9806  168.9165 C.ar    1  UNL1        0.1231
     16 N         139.3123  140.5055  170.2647 N.ar    1  UNL1       -0.1675
     17 O         137.7039  140.2666  163.3019 O.3     1  UNL1       -0.4589
     18 C         137.1198  141.6480  163.3214 C.3     1  UNL1        0.2139
     19 C         137.9461  142.8181  162.8767 C.3     1  UNL1        0.1206
     20 C         138.4621  142.8804  161.4697 C.3     1  UNL1        0.0778
     21 N         139.2885  144.0505  161.0249 N.3     1  UNL1       -0.2971
     22 C         139.5989  145.1585  161.9872 C.3     1  UNL1        0.0742
     23 C         139.0829  145.0963  163.3944 C.3     1  UNL1        0.0838
     24 C         138.2565  143.9261  163.8391 C.3     1  UNL1        0.2699
     25 F         137.4394  143.0330  164.7249 F       1  UNL1       -0.2041
     26 F         138.2832  144.7239  165.1091 F       1  UNL1       -0.2041
     27 H         138.7992  144.4739  160.2364 H       1  UNL1        0.1233
@<TRIPOS>BOND
     1    11    12    1
     2    12    13   ar
     3    13    14   ar
     4    14     1    1
     5     1     2   ar
     6     2     3   ar
     7     3     4   ar
     8     4     5   ar
     9     5     6   ar
    10     6     7   ar
    11     7     8   ar
    12     8     9   ar
    13     9    17    1
    14    17    18    1
    15    18    19    1
    16    19    20    1
    17    20    21    1
    18    21    22    1
    19    22    23    1
    20    23    24    1
    21    24    25    1
    22    24    26    1
    23     9    10   ar
    24    14    15   ar
    25    15    16   ar
    26    16    12   ar
    27    10     1   ar
    28     8     3   ar
    29    24    19    1
    30    21    27    1
@<TRIPOS>MOLECULE
*****
 27 30 0 0 0
SMALL
GASTEIGER

@<TRIPOS>ATOM
      1 C         139.7269  140.8414  165.4993 C.ar    1  UNL1        0.0890
      2 C         139.1833  140.3826  166.8198 C.ar    1  UNL1        0.0401
      3 C         140.0708  140.3590  168.0290 C.ar    1  UNL1        0.1051
      4 N         139.5272  139.9002  169.3495 N.ar    1  UNL1       -0.2405
      5 C         140.4147  139.8767  170.5585 C.ar    1  UNL1        0.1195
      6 C         141.8458  140.3120  170.4470 C.ar    1  UNL1        0.1197
      7 N         142.3894  140.7708  169.1264 N.ar    1  UNL1       -0.2360
      8 C         141.5019  140.7943  167.9174 C.ar    1  UNL1        0.1519
      9 C         142.0455  141.2532  166.5968 C.ar    1  UNL1        0.2445
     10 N         141.1580  141.2767  165.3878 N.ar    1  UNL1       -0.2102
     11 C         137.4798  139.5683  160.8937 C.3     1  UNL1        0.1538
     12 N         137.8066  140.2797  162.1732 N.ar    1  UNL1       -0.2473
     13 C         138.8563  139.8733  163.1648 C.ar    1  UNL1        0.0982
     14 C         138.8394  140.8649  164.2902 C.ar    1  UNL1        0.0574
     15 C         137.7794  141.8840  163.9943 C.ar    1  UNL1        0.1231
     16 N         137.1410  141.5224  162.6859 N.ar    1  UNL1       -0.1675
     17 O         143.4766  141.6885  166.4852 O.3     1  UNL1       -0.4589
     18 C         143.8236  142.9396  165.7341 C.3     1  UNL1        0.2139
     19 C         144.2009  142.8637  164.2843 C.3     1  UNL1        0.1206
     20 C         145.3569  142.0103  163.8538 C.3     1  UNL1        0.0778
     21 N         145.7341  141.9344  162.4040 N.3     1  UNL1       -0.2971
     22 C         144.9555  142.7120  161.3847 C.3     1  UNL1        0.0742
     23 C         143.7995  143.5655  161.8152 C.3     1  UNL1        0.0838
     24 C         143.4222  143.6414  163.2650 C.3     1  UNL1        0.2699
     25 F         142.6857  144.0347  164.5111 F       1  UNL1       -0.2041
     26 F         142.3877  144.5556  162.6785 F       1  UNL1       -0.2041
     27 H         145.6731  140.9525  162.1349 H       1  UNL1        0.1233
@<TRIPOS>BOND
     1    11    12    1
     2    12    13   ar
     3    13    14   ar
     4    14     1    1
     5     1     2   ar
     6     2     3   ar
     7     3     4   ar
     8     4     5   ar
     9     5     6   ar
    10     6     7   ar
    11     7     8   ar
    12     8     9   ar
    13     9    17    1
    14    17    18    1
    15    18    19    1
    16    19    20    1
    17    20    21    1
    18    21    22    1
    19    22    23    1
    20    23    24    1
    21    24    25    1
    22    24    26    1
    23     9    10   ar
    24    14    15   ar
    25    15    16   ar
    26    16    12   ar
    27    10     1   ar
    28     8     3   ar
    29    24    19    1
    30    21    27    1
@<TRIPOS>MOLECULE
*****
 27 30 0 0 0
SMALL
GASTEIGER

@<TRIPOS>ATOM
      1 C         140.7606  142.5332  165.8974 C.ar    1  UNL1        0.0890
      2 C         140.5914  142.7718  167.3686 C.ar    1  UNL1        0.0401
      3 C         141.3005  141.8942  168.3571 C.ar    1  UNL1        0.1051
      4 N         141.1313  142.1328  169.8283 N.ar    1  UNL1       -0.2405
      5 C         141.8403  141.2552  170.8168 C.ar    1  UNL1        0.1195
      6 C         142.7185  140.1391  170.3341 C.ar    1  UNL1        0.1197
      7 N         142.8877  139.9005  168.8629 N.ar    1  UNL1       -0.2360
      8 C         142.1787  140.7781  167.8744 C.ar    1  UNL1        0.1519
      9 C         142.3478  140.5395  166.4032 C.ar    1  UNL1        0.2445
     10 N         141.6388  141.4171  165.4147 N.ar    1  UNL1       -0.2102
     11 C         139.8245  146.0081  162.0335 C.3     1  UNL1        0.1538
     12 N         139.6213  145.0081  163.1328 N.ar    1  UNL1       -0.2473
     13 C         140.7041  144.3259  163.9155 C.ar    1  UNL1        0.0982
     14 C         140.0515  143.4108  164.9089 C.ar    1  UNL1        0.0574
     15 C         138.5656  143.5273  164.7402 C.ar    1  UNL1        0.1231
     16 N         138.2997  144.5145  163.6425 N.ar    1  UNL1       -0.1675
     17 O         143.2260  139.4234  165.9204 O.3     1  UNL1       -0.4589
     18 C         142.6121  138.1622  165.3892 C.3     1  UNL1        0.2139
     19 C         141.9894  138.1481  164.0246 C.3     1  UNL1        0.1206
     20 C         142.8222  138.4612  162.8169 C.3     1  UNL1        0.0778
     21 N         142.1995  138.4471  161.4524 N.3     1  UNL1       -0.2971
     22 C         140.7441  138.1199  161.2954 C.3     1  UNL1        0.0742
     23 C         139.9113  137.8067  162.5031 C.3     1  UNL1        0.0838
     24 C         140.5339  137.8208  163.8677 C.3     1  UNL1        0.2699
     25 F         140.6672  137.7076  165.3574 F       1  UNL1       -0.2041
     26 F         139.1248  137.4542  164.2281 F       1  UNL1       -0.2041
     27 H         142.7164  137.7630  160.8999 H       1  UNL1        0.1233
@<TRIPOS>BOND
     1    11    12    1
     2    12    13   ar
     3    13    14   ar
     4    14     1    1
     5     1     2   ar
     6     2     3   ar
     7     3     4   ar
     8     4     5   ar
     9     5     6   ar
    10     6     7   ar
    11     7     8   ar
    12     8     9   ar
    13     9    17    1
    14    17    18    1
    15    18    19    1
    16    19    20    1
    17    20    21    1
    18    21    22    1
    19    22    23    1
    20    23    24    1
    21    24    25    1
    22    24    26    1
    23     9    10   ar
    24    14    15   ar
    25    15    16   ar
    26    16    12   ar
    27    10     1   ar
    28     8     3   ar
    29    24    19    1
    30    21    27    1
@<TRIPOS>MOLECULE
*****
 27 30 0 0 0
SMALL
GASTEIGER

@<TRIPOS>ATOM
      1 C         138.6364  141.0645  164.0823 C.ar    1  UNL1        0.0890
      2 C         138.5006  140.1782  162.8798 C.ar    1  UNL1        0.0401
      3 C         138.3874  140.7826  161.5116 C.ar    1  UNL1        0.1051
      4 N         138.2516  139.8963  160.3091 N.ar    1  UNL1       -0.2405
      5 C         138.1384  140.5007  158.9409 C.ar    1  UNL1        0.1195
      6 C         138.1609  141.9913  158.7753 C.ar    1  UNL1        0.1197
      7 N         138.2966  142.8776  159.9778 N.ar    1  UNL1       -0.2360
      8 C         138.4098  142.2732  161.3459 C.ar    1  UNL1        0.1519
      9 C         138.5456  143.1595  162.5485 C.ar    1  UNL1        0.2445
     10 N         138.6588  142.5551  163.9167 N.ar    1  UNL1       -0.2102
     11 C         140.0850  140.1988  169.0856 C.3     1  UNL1        0.1538
     12 N         139.4155  140.0623  167.7503 N.ar    1  UNL1       -0.2473
     13 C         139.6116  140.9659  166.5691 C.ar    1  UNL1        0.0982
     14 C         138.7496  140.4601  165.4505 C.ar    1  UNL1        0.0574
     15 C         138.0209  139.2440  165.9403 C.ar    1  UNL1        0.1231
     16 N         138.4324  138.9981  167.3616 N.ar    1  UNL1       -0.1675
     17 O         138.5681  144.6502  162.3829 O.3     1  UNL1       -0.4589
     18 C         139.8397  145.4114  162.6140 C.3     1  UNL1        0.2139
     19 C         141.1614  144.7783  162.2944 C.3     1  UNL1        0.1206
     20 C         141.5544  144.5427  160.8661 C.3     1  UNL1        0.0778
     21 N         142.8762  143.9096  160.5466 N.3     1  UNL1       -0.2971
     22 C         143.8050  143.5121  161.6553 C.3     1  UNL1        0.0742
     23 C         143.4121  143.7477  163.0836 C.3     1  UNL1        0.0838
     24 C         142.0903  144.3808  163.4032 C.3     1  UNL1        0.2699
     25 F         140.9541  144.9437  164.2045 F       1  UNL1       -0.2041
     26 F         142.6245  144.1788  164.7902 F       1  UNL1       -0.2041
     27 H         143.3847  144.5703  159.9590 H       1  UNL1        0.1233
@<TRIPOS>BOND
     1    11    12    1
     2    12    13   ar
     3    13    14   ar
     4    14     1    1
     5     1     2   ar
     6     2     3   ar
     7     3     4   ar
     8     4     5   ar
     9     5     6   ar
    10     6     7   ar
    11     7     8   ar
    12     8     9   ar
    13     9    17    1
    14    17    18    1
    15    18    19    1
    16    19    20    1
    17    20    21    1
    18    21    22    1
    19    22    23    1
    20    23    24    1
    21    24    25    1
    22    24    26    1
    23     9    10   ar
    24    14    15   ar
    25    15    16   ar
    26    16    12   ar
    27    10     1   ar
    28     8     3   ar
    29    24    19    1
    30    21    27    1
@<TRIPOS>MOLECULE
*****
 27 30 0 0 0
SMALL
GASTEIGER

@<TRIPOS>ATOM
      1 C         142.7900  140.9046  165.3983 C.ar    1  UNL1        0.0890
      2 C         143.0840  141.3749  166.7920 C.ar    1  UNL1        0.0401
      3 C         142.1538  141.0218  167.9146 C.ar    1  UNL1        0.1051
      4 N         142.4477  141.4922  169.3082 N.ar    1  UNL1       -0.2405
      5 C         141.5176  141.1391  170.4307 C.ar    1  UNL1        0.1195
      6 C         140.2935  140.3156  170.1596 C.ar    1  UNL1        0.1197
      7 N         139.9995  139.8453  168.7659 N.ar    1  UNL1       -0.2360
      8 C         140.9297  140.1984  167.6434 C.ar    1  UNL1        0.1519
      9 C         140.6357  139.7280  166.2497 C.ar    1  UNL1        0.2445
     10 N         141.5659  140.0811  165.1271 N.ar    1  UNL1       -0.2102
     11 C         144.6521  142.7087  160.7984 C.3     1  UNL1        0.1538
     12 N         144.5761  142.0870  162.1613 N.ar    1  UNL1       -0.2473
     13 C         143.3358  141.9278  162.9900 C.ar    1  UNL1        0.0982
     14 C         143.7202  141.2577  164.2757 C.ar    1  UNL1        0.0574
     15 C         145.1979  141.0026  164.2418 C.ar    1  UNL1        0.1231
     16 N         145.7269  141.5151  162.9351 N.ar    1  UNL1       -0.1675
     17 O         139.4116  138.9046  165.9785 O.3     1  UNL1       -0.4589
     18 C         138.1718  139.5577  165.4435 C.3     1  UNL1        0.2139
     19 C         138.1148  139.9982  164.0107 C.3     1  UNL1        0.1206
     20 C         138.3213  139.0000  162.9104 C.3     1  UNL1        0.0778
     21 N         138.2642  139.4406  161.4776 N.3     1  UNL1       -0.2971
     22 C         138.0007  140.8793  161.1453 C.3     1  UNL1        0.0742
     23 C         137.7941  141.8776  162.2457 C.3     1  UNL1        0.0838
     24 C         137.8512  141.4371  163.6785 C.3     1  UNL1        0.2699
     25 F         137.8120  141.5043  165.1764 F       1  UNL1       -0.2041
     26 F         137.5740  142.8992  163.8664 F       1  UNL1       -0.2041
     27 H         137.5269  138.8954  161.0311 H       1  UNL1        0.1233
@<TRIPOS>BOND
     1    11    12    1
     2    12    13   ar
     3    13    14   ar
     4    14     1    1
     5     1     2   ar
     6     2     3   ar
     7     3     4   ar
     8     4     5   ar
     9     5     6   ar
    10     6     7   ar
    11     7     8   ar
    12     8     9   ar
    13     9    17    1
    14    17    18    1
    15    18    19    1
    16    19    20    1
    17    20    21    1
    18    21    22    1
    19    22    23    1
    20    23    24    1
    21    24    25    1
    22    24    26    1
    23     9    10   ar
    24    14    15   ar
    25    15    16   ar
    26    16    12   ar
    27    10     1   ar
    28     8     3   ar
    29    24    19    1
    30    21    27    1
