@<TRIPOS>MOLECULE
*****
 37 42 0 0 0
SMALL
GASTEIGER

@<TRIPOS>ATOM
      1 N         143.1848  142.8925  164.6439 N.3     1  UNL1       -0.2703
      2 C         143.8229  142.5962  163.3192 C.3     1  UNL1        0.0736
      3 C         143.3963  143.3516  162.0955 C.3     1  UNL1        0.0331
      4 C         142.3316  144.4034  162.1966 C.3     1  UNL1        0.0570
      5 C         141.6935  144.6997  163.5213 C.3     1  UNL1        0.0331
      6 C         142.1201  143.9443  164.7450 C.3     1  UNL1        0.0736
      7 N         141.9050  145.1588  160.9728 N.3     1  UNL1       -0.2934
      8 H         142.6491  145.0480  160.2841 H       1  UNL1        0.1236
      9 C         140.6206  144.8056  160.2832 C.3     1  UNL1        0.1152
     10 C         139.8428  143.5991  160.7184 C.ar    1  UNL1        0.0782
     11 C         140.2755  142.2306  160.2824 C.ar    1  UNL1        0.0562
     12 C         139.4977  141.0241  160.7176 C.ar    1  UNL1        0.1752
     13 C         138.2873  141.1860  161.5887 C.ar    1  UNL1        0.1914
     14 C         137.8547  142.5546  162.0246 C.ar    1  UNL1        0.1384
     15 N         138.6325  143.7611  161.5894 N.ar    1  UNL1       -0.2434
     16 O         137.5095  139.9795  162.0239 O.3     1  UNL1       -0.4668
     17 C         137.9421  138.6110  161.5880 C.3     1  UNL1        0.2527
     18 C         139.1525  138.4490  160.7169 C.3     1  UNL1        0.2526
     19 O         139.9303  139.6555  160.2817 O.3     1  UNL1       -0.4683
     20 C         143.6113  142.1372  165.8676 C.3     1  UNL1        0.1056
     21 O         139.5318  138.9692  164.7533 O.2     1  UNL1       -0.2645
     22 C         139.5919  139.5164  166.1487 C.ar    1  UNL1        0.2886
     23 C         138.5274  139.1560  167.1421 C.ar    1  UNL1        0.1974
     24 F         137.4028  138.2482  166.7401 F       1  UNL1       -0.1991
     25 C         138.5874  139.7032  168.5374 C.ar    1  UNL1        0.0551
     26 C         139.7119  140.6109  168.9393 C.ar    1  UNL1        0.0994
     27 N         139.7719  141.1581  170.3346 N.ar    1  UNL1       -0.2400
     28 C         140.8965  142.0658  170.7365 C.ar    1  UNL1        0.1282
     29 C         141.9610  142.4263  169.7431 C.ar    1  UNL1        0.1589
     30 F         143.0855  143.3340  170.1450 F       1  UNL1       -0.2027
     31 C         141.9010  141.8790  168.3478 C.ar    1  UNL1        0.0512
     32 C         140.7764  140.9714  167.9459 C.ar    1  UNL1        0.0808
     33 N         140.7164  140.4241  166.5505 N.ar    1  UNL1       -0.2896
     34 C         141.9401  141.0265  165.9263 C.3     1  UNL1        0.1416
     35 C         142.6240  141.8665  166.9640 C.3     1  UNL1        0.1459
     36 O         143.5144  142.7631  167.7724 O.3     1  UNL1       -0.3793
     37 H         144.2544  143.0649  167.2227 H       1  UNL1        0.2108
@<TRIPOS>BOND
     1    21    22    2
     2    22    23   ar
     3    23    24    1
     4    23    25   ar
     5    25    26   ar
     6    26    27   ar
     7    27    28   ar
     8    28    29   ar
     9    29    30    1
    10    29    31   ar
    11    31    32   ar
    12    32    33   ar
    13    33    34    1
    14    34    35    1
    15    35    36    1
    16    35    20    1
    17    20     1    1
    18     1     2    1
    19     2     3    1
    20     3     4    1
    21     4     7    1
    22     7     9    1
    23     9    10    1
    24    10    11   ar
    25    11    12   ar
    26    12    13   ar
    27    13    14   ar
    28    14    15   ar
    29    13    16    1
    30    16    17    1
    31    17    18    1
    32    18    19    1
    33     4     5    1
    34     5     6    1
    35    33    22   ar
    36     6     1    1
    37    32    26   ar
    38    15    10   ar
    39    35    31    1
    40    19    12    1
    41    36    37    1
    42     7     8    1
@<TRIPOS>MOLECULE
*****
 37 42 0 0 0
SMALL
GASTEIGER

@<TRIPOS>ATOM
      1 N         138.4693  139.2325  164.4780 N.3     1  UNL1       -0.2703
      2 C         138.8826  138.4895  163.2422 C.3     1  UNL1        0.0736
      3 C         138.5836  139.0613  161.8881 C.3     1  UNL1        0.0331
      4 C         137.8713  140.3760  161.7697 C.3     1  UNL1        0.0570
      5 C         137.4579  141.1190  163.0054 C.3     1  UNL1        0.0331
      6 C         137.7569  140.5472  164.3596 C.3     1  UNL1        0.0736
      7 N         137.5723  140.9478  160.4155 N.3     1  UNL1       -0.2934
      8 H         136.6428  141.3643  160.4704 H       1  UNL1        0.1236
      9 C         138.4780  141.9865  159.8233 C.3     1  UNL1        0.1152
     10 C         139.3451  142.8229  160.7169 C.ar    1  UNL1        0.0782
     11 C         140.8206  142.5621  160.7881 C.ar    1  UNL1        0.0562
     12 C         141.6876  143.3986  161.6817 C.ar    1  UNL1        0.1752
     13 C         141.0794  144.4957  162.5041 C.ar    1  UNL1        0.1914
     14 C         139.6039  144.7564  162.4328 C.ar    1  UNL1        0.1384
     15 N         138.7368  143.9200  161.5392 N.ar    1  UNL1       -0.2434
     16 O         141.9465  145.3321  163.3977 O.3     1  UNL1       -0.4668
     17 C         143.4219  145.0714  163.4690 C.3     1  UNL1        0.2527
     18 C         144.0302  143.9743  162.6466 C.3     1  UNL1        0.2526
     19 O         143.1632  143.1379  161.7530 O.3     1  UNL1       -0.4683
     20 C         138.7682  138.6608  165.8321 C.3     1  UNL1        0.1056
     21 O         143.1603  141.3090  164.5607 O.2     1  UNL1       -0.2645
     22 C         142.6485  141.4946  165.9584 C.ar    1  UNL1        0.2886
     23 C         143.3781  142.3948  166.9109 C.ar    1  UNL1        0.1974
     24 F         144.6196  143.1094  166.4657 F       1  UNL1       -0.1991
     25 C         142.8664  142.5804  168.3086 C.ar    1  UNL1        0.0551
     26 C         141.6249  141.8659  168.7539 C.ar    1  UNL1        0.0994
     27 N         141.1131  142.0515  170.1516 N.ar    1  UNL1       -0.2400
     28 C         139.8717  141.3369  170.5968 C.ar    1  UNL1        0.1282
     29 C         139.1421  140.4367  169.6443 C.ar    1  UNL1        0.1589
     30 F         137.9006  139.7222  170.0895 F       1  UNL1       -0.2027
     31 C         139.6538  140.2511  168.2466 C.ar    1  UNL1        0.0512
     32 C         140.8952  140.9657  167.8014 C.ar    1  UNL1        0.0808
     33 N         141.4071  140.7801  166.4036 N.ar    1  UNL1       -0.2896
     34 C         140.4003  139.8296  165.8265 C.3     1  UNL1        0.1416
     35 C         139.3881  139.5242  166.8905 C.3     1  UNL1        0.1459
     36 O         138.2462  139.0383  167.7333 O.3     1  UNL1       -0.3793
     37 H         137.6933  138.4354  167.2120 H       1  UNL1        0.2108
@<TRIPOS>BOND
     1    21    22    2
     2    22    23   ar
     3    23    24    1
     4    23    25   ar
     5    25    26   ar
     6    26    27   ar
     7    27    28   ar
     8    28    29   ar
     9    29    30    1
    10    29    31   ar
    11    31    32   ar
    12    32    33   ar
    13    33    34    1
    14    34    35    1
    15    35    36    1
    16    35    20    1
    17    20     1    1
    18     1     2    1
    19     2     3    1
    20     3     4    1
    21     4     7    1
    22     7     9    1
    23     9    10    1
    24    10    11   ar
    25    11    12   ar
    26    12    13   ar
    27    13    14   ar
    28    14    15   ar
    29    13    16    1
    30    16    17    1
    31    17    18    1
    32    18    19    1
    33     4     5    1
    34     5     6    1
    35    33    22   ar
    36     6     1    1
    37    32    26   ar
    38    15    10   ar
    39    35    31    1
    40    19    12    1
    41    36    37    1
    42     7     8    1
@<TRIPOS>MOLECULE
*****
 37 42 0 0 0
SMALL
GASTEIGER

@<TRIPOS>ATOM
      1 N         138.5202  141.6405  164.3940 N.3     1  UNL1       -0.2703
      2 C         137.9950  141.6916  162.9899 C.3     1  UNL1        0.0736
      3 C         137.9696  142.9937  162.2457 C.3     1  UNL1        0.0331
      4 C         138.4694  144.2446  162.9055 C.3     1  UNL1        0.0570
      5 C         138.9946  144.1935  164.3096 C.3     1  UNL1        0.0331
      6 C         139.0200  142.8914  165.0539 C.3     1  UNL1        0.0736
      7 N         138.4440  145.5468  162.1612 N.3     1  UNL1       -0.2934
      8 H         138.0437  146.2397  162.7937 H       1  UNL1        0.1236
      9 C         139.7187  146.1314  161.6290 C.3     1  UNL1        0.1152
     10 C         140.8523  145.2296  161.2396 C.ar    1  UNL1        0.0782
     11 C         140.9776  144.7512  159.8234 C.ar    1  UNL1        0.0562
     12 C         142.1112  143.8494  159.4341 C.ar    1  UNL1        0.1752
     13 C         143.1194  143.4259  160.4607 C.ar    1  UNL1        0.1914
     14 C         142.9940  143.9043  161.8769 C.ar    1  UNL1        0.1384
     15 N         141.8604  144.8062  162.2663 N.ar    1  UNL1       -0.2434
     16 O         144.2530  142.5241  160.0713 O.3     1  UNL1       -0.4668
     17 C         144.3784  142.0457  158.6552 C.3     1  UNL1        0.2527
     18 C         143.3702  142.4691  157.6285 C.3     1  UNL1        0.2526
     19 O         142.2366  143.3710  158.0179 O.3     1  UNL1       -0.4683
     20 C         138.5456  140.3385  165.1383 C.3     1  UNL1        0.1056
     21 O         139.0777  141.3556  170.2961 O.2     1  UNL1       -0.2645
     22 C         140.2138  140.6314  169.6366 C.ar    1  UNL1        0.2886
     23 C         141.4180  140.2364  170.4390 C.ar    1  UNL1        0.1974
     24 F         141.4861  140.5655  171.9009 F       1  UNL1       -0.1991
     25 C         142.5541  139.5123  169.7796 C.ar    1  UNL1        0.0551
     26 C         142.4861  139.1832  168.3176 C.ar    1  UNL1        0.0994
     27 N         143.6222  138.4592  167.6582 N.ar    1  UNL1       -0.2400
     28 C         143.5542  138.1301  166.1964 C.ar    1  UNL1        0.1282
     29 C         142.3500  138.5251  165.3940 C.ar    1  UNL1        0.1589
     30 F         142.2819  138.1960  163.9320 F       1  UNL1       -0.2027
     31 C         141.2138  139.2492  166.0534 C.ar    1  UNL1        0.0512
     32 C         141.2819  139.5782  167.5152 C.ar    1  UNL1        0.0808
     33 N         140.1457  140.3024  168.1747 N.ar    1  UNL1       -0.2896
     34 C         139.1910  140.4902  167.0331 C.3     1  UNL1        0.1416
     35 C         139.8077  139.8821  165.8084 C.3     1  UNL1        0.1459
     36 O         140.1605  139.3694  164.4435 O.3     1  UNL1       -0.3793
     37 H         139.4402  139.5716  163.8260 H       1  UNL1        0.2108
@<TRIPOS>BOND
     1    21    22    2
     2    22    23   ar
     3    23    24    1
     4    23    25   ar
     5    25    26   ar
     6    26    27   ar
     7    27    28   ar
     8    28    29   ar
     9    29    30    1
    10    29    31   ar
    11    31    32   ar
    12    32    33   ar
    13    33    34    1
    14    34    35    1
    15    35    36    1
    16    35    20    1
    17    20     1    1
    18     1     2    1
    19     2     3    1
    20     3     4    1
    21     4     7    1
    22     7     9    1
    23     9    10    1
    24    10    11   ar
    25    11    12   ar
    26    12    13   ar
    27    13    14   ar
    28    14    15   ar
    29    13    16    1
    30    16    17    1
    31    17    18    1
    32    18    19    1
    33     4     5    1
    34     5     6    1
    35    33    22   ar
    36     6     1    1
    37    32    26   ar
    38    15    10   ar
    39    35    31    1
    40    19    12    1
    41    36    37    1
    42     7     8    1
@<TRIPOS>MOLECULE
*****
 37 42 0 0 0
SMALL
GASTEIGER

@<TRIPOS>ATOM
      1 N         141.1713  138.8305  161.2804 N.3     1  UNL1       -0.2703
      2 C         140.6394  139.3814  159.9907 C.3     1  UNL1        0.0736
      3 C         141.2844  139.0022  158.6906 C.3     1  UNL1        0.0331
      4 C         142.4612  138.0721  158.6802 C.3     1  UNL1        0.0570
      5 C         142.9930  137.5212  159.9700 C.3     1  UNL1        0.0331
      6 C         142.3481  137.9004  161.2701 C.3     1  UNL1        0.0736
      7 N         143.1061  137.6930  157.3800 N.3     1  UNL1       -0.2934
      8 H         143.9426  137.1572  157.6115 H       1  UNL1        0.1236
      9 C         142.3422  136.8885  156.3704 C.3     1  UNL1        0.1152
     10 C         142.4495  135.3923  156.3672 C.ar    1  UNL1        0.0782
     11 C         143.5230  134.7158  157.1670 C.ar    1  UNL1        0.0562
     12 C         143.6304  133.2196  157.1638 C.ar    1  UNL1        0.1752
     13 C         142.6642  132.4000  156.3607 C.ar    1  UNL1        0.1914
     14 C         141.5907  133.0768  155.5608 C.ar    1  UNL1        0.1384
     15 N         141.4834  134.5729  155.5641 N.ar    1  UNL1       -0.2434
     16 O         142.7715  130.9039  156.3574 O.3     1  UNL1       -0.4668
     17 C         143.8450  130.2273  157.1572 C.3     1  UNL1        0.2527
     18 C         144.8112  131.0468  157.9603 C.3     1  UNL1        0.2526
     19 O         144.7039  132.5429  157.9636 O.3     1  UNL1       -0.4683
     20 C         140.5265  139.2096  162.5805 C.3     1  UNL1        0.1056
     21 O         144.4837  142.6270  163.3432 O.2     1  UNL1       -0.2645
     22 C         143.0937  143.1862  163.4169 C.ar    1  UNL1        0.2886
     23 C         142.8861  144.6454  163.6951 C.ar    1  UNL1        0.1974
     24 F         144.0685  145.5456  163.8995 F       1  UNL1       -0.1991
     25 C         141.4962  145.2046  163.7689 C.ar    1  UNL1        0.0551
     26 C         140.3138  144.3044  163.5645 C.ar    1  UNL1        0.0994
     27 N         138.9239  144.8635  163.6383 N.ar    1  UNL1       -0.2400
     28 C         137.7416  143.9633  163.4339 C.ar    1  UNL1        0.1282
     29 C         137.9492  142.5040  163.1557 C.ar    1  UNL1        0.1589
     30 F         136.7668  141.6038  162.9513 F       1  UNL1       -0.2027
     31 C         139.3391  141.9449  163.0819 C.ar    1  UNL1        0.0512
     32 C         140.5214  142.8451  163.2863 C.ar    1  UNL1        0.0808
     33 N         141.9114  142.2860  163.2126 N.ar    1  UNL1       -0.2896
     34 C         141.6500  140.8372  162.9247 C.3     1  UNL1        0.1416
     35 C         140.1649  140.6403  162.8493 C.3     1  UNL1        0.1459
     36 O         138.7553  140.1443  162.7177 O.3     1  UNL1       -0.3793
     37 H         138.7636  139.1921  162.5330 H       1  UNL1        0.2108
@<TRIPOS>BOND
     1    21    22    2
     2    22    23   ar
     3    23    24    1
     4    23    25   ar
     5    25    26   ar
     6    26    27   ar
     7    27    28   ar
     8    28    29   ar
     9    29    30    1
    10    29    31   ar
    11    31    32   ar
    12    32    33   ar
    13    33    34    1
    14    34    35    1
    15    35    36    1
    16    35    20    1
    17    20     1    1
    18     1     2    1
    19     2     3    1
    20     3     4    1
    21     4     7    1
    22     7     9    1
    23     9    10    1
    24    10    11   ar
    25    11    12   ar
    26    12    13   ar
    27    13    14   ar
    28    14    15   ar
    29    13    16    1
    30    16    17    1
    31    17    18    1
    32    18    19    1
    33     4     5    1
    34     5     6    1
    35    33    22   ar
    36     6     1    1
    37    32    26   ar
    38    15    10   ar
    39    35    31    1
    40    19    12    1
    41    36    37    1
    42     7     8    1
@<TRIPOS>MOLECULE
*****
 37 42 0 0 0
SMALL
GASTEIGER

@<TRIPOS>ATOM
      1 N         139.7250  138.5031  160.1017 N.3     1  UNL1       -0.2703
      2 C         141.0966  138.2850  160.6683 C.3     1  UNL1        0.0736
      3 C         142.2648  138.0845  159.7489 C.3     1  UNL1        0.0331
      4 C         142.0612  138.1021  158.2629 C.3     1  UNL1        0.0570
      5 C         140.6896  138.3201  157.6962 C.3     1  UNL1        0.0331
      6 C         139.5215  138.5206  158.6157 C.3     1  UNL1        0.0736
      7 N         143.2295  137.9015  157.3435 N.3     1  UNL1       -0.2934
      8 H         143.9546  137.4330  157.8867 H       1  UNL1        0.1236
      9 C         143.0610  137.1153  156.0772 C.3     1  UNL1        0.1152
     10 C         142.8886  135.6265  156.1362 C.ar    1  UNL1        0.0782
     11 C         143.8659  134.7883  156.9058 C.ar    1  UNL1        0.0562
     12 C         143.6935  133.2994  156.9647 C.ar    1  UNL1        0.1752
     13 C         142.5439  132.6487  156.2542 C.ar    1  UNL1        0.1914
     14 C         141.5665  133.4870  155.4846 C.ar    1  UNL1        0.1384
     15 N         141.7390  134.9759  155.4256 N.ar    1  UNL1       -0.2434
     16 O         142.3714  131.1598  156.3131 O.3     1  UNL1       -0.4668
     17 C         143.3487  130.3215  157.0827 C.3     1  UNL1        0.2527
     18 C         144.4984  130.9722  157.7933 C.3     1  UNL1        0.2526
     19 O         144.6708  132.4610  157.7343 O.3     1  UNL1       -0.4683
     20 C         138.5569  138.7036  161.0210 C.3     1  UNL1        0.1056
     21 O         138.9040  143.9618  161.4092 O.2     1  UNL1       -0.2645
     22 C         139.0281  143.1872  162.6878 C.ar    1  UNL1        0.2886
     23 C         139.2390  143.9100  163.9851 C.ar    1  UNL1        0.1974
     24 F         139.3258  145.4074  164.0039 F       1  UNL1       -0.1991
     25 C         139.3631  143.1355  165.2637 C.ar    1  UNL1        0.0551
     26 C         139.2763  141.6381  165.2449 C.ar    1  UNL1        0.0994
     27 N         139.4003  140.8635  166.5234 N.ar    1  UNL1       -0.2400
     28 C         139.3135  139.3662  166.5046 C.ar    1  UNL1        0.1282
     29 C         139.1026  138.6434  165.2073 C.ar    1  UNL1        0.1589
     30 F         139.0158  137.1460  165.1885 F       1  UNL1       -0.2027
     31 C         138.9786  139.4179  163.9288 C.ar    1  UNL1        0.0512
     32 C         139.0654  140.9152  163.9476 C.ar    1  UNL1        0.0808
     33 N         138.9413  141.6899  162.6690 N.ar    1  UNL1       -0.2896
     34 C         138.7474  140.5971  161.6599 C.3     1  UNL1        0.1416
     35 C         138.7689  139.2854  162.3872 C.3     1  UNL1        0.1459
     36 O         138.7461  137.8520  162.8289 O.3     1  UNL1       -0.3793
     37 H         138.6127  137.2783  162.0583 H       1  UNL1        0.2108
@<TRIPOS>BOND
     1    21    22    2
     2    22    23   ar
     3    23    24    1
     4    23    25   ar
     5    25    26   ar
     6    26    27   ar
     7    27    28   ar
     8    28    29   ar
     9    29    30    1
    10    29    31   ar
    11    31    32   ar
    12    32    33   ar
    13    33    34    1
    14    34    35    1
    15    35    36    1
    16    35    20    1
    17    20     1    1
    18     1     2    1
    19     2     3    1
    20     3     4    1
    21     4     7    1
    22     7     9    1
    23     9    10    1
    24    10    11   ar
    25    11    12   ar
    26    12    13   ar
    27    13    14   ar
    28    14    15   ar
    29    13    16    1
    30    16    17    1
    31    17    18    1
    32    18    19    1
    33     4     5    1
    34     5     6    1
    35    33    22   ar
    36     6     1    1
    37    32    26   ar
    38    15    10   ar
    39    35    31    1
    40    19    12    1
    41    36    37    1
    42     7     8    1
@<TRIPOS>MOLECULE
*****
 37 42 0 0 0
SMALL
GASTEIGER

@<TRIPOS>ATOM
      1 N         140.8138  138.5122  159.8252 N.3     1  UNL1       -0.2703
      2 C         142.1463  138.5991  160.5085 C.3     1  UNL1        0.0736
      3 C         143.3467  139.0857  159.7521 C.3     1  UNL1        0.0331
      4 C         143.2146  139.4853  158.3123 C.3     1  UNL1        0.0570
      5 C         141.8822  139.3984  157.6290 C.3     1  UNL1        0.0331
      6 C         140.6817  138.9118  158.3854 C.3     1  UNL1        0.0736
      7 N         144.4151  139.9719  157.5559 N.3     1  UNL1       -0.2934
      8 H         144.3027  139.6583  156.5918 H       1  UNL1        0.1236
      9 C         144.7230  141.4389  157.5009 C.3     1  UNL1        0.1152
     10 C         143.7045  142.4370  157.9662 C.ar    1  UNL1        0.0782
     11 C         143.4765  142.6471  159.4338 C.ar    1  UNL1        0.0562
     12 C         142.4579  143.6451  159.8991 C.ar    1  UNL1        0.1752
     13 C         141.6674  144.4330  158.8969 C.ar    1  UNL1        0.1914
     14 C         141.8955  144.2228  157.4293 C.ar    1  UNL1        0.1384
     15 N         142.9141  143.2248  156.9640 N.ar    1  UNL1       -0.2434
     16 O         140.6489  145.4310  159.3622 O.3     1  UNL1       -0.4668
     17 C         140.4208  145.6412  160.8298 C.3     1  UNL1        0.2527
     18 C         141.2113  144.8533  161.8321 C.3     1  UNL1        0.2526
     19 O         142.2298  143.8553  161.3668 O.3     1  UNL1       -0.4683
     20 C         139.6134  138.0256  160.5815 C.3     1  UNL1        0.1056
     21 O         138.0922  143.0855  160.5215 O.2     1  UNL1       -0.2645
     22 C         138.1167  142.4104  161.8608 C.ar    1  UNL1        0.2886
     23 C         137.7217  143.1714  163.0916 C.ar    1  UNL1        0.1974
     24 F         137.3022  144.6075  162.9831 F       1  UNL1       -0.1991
     25 C         137.7461  142.4964  164.4309 C.ar    1  UNL1        0.0551
     26 C         138.1656  141.0603  164.5394 C.ar    1  UNL1        0.0994
     27 N         138.1900  140.3852  165.8787 N.ar    1  UNL1       -0.2400
     28 C         138.6094  138.9492  165.9872 C.ar    1  UNL1        0.1282
     29 C         139.0044  138.1882  164.7564 C.ar    1  UNL1        0.1589
     30 F         139.4239  136.7521  164.8649 F       1  UNL1       -0.2027
     31 C         138.9800  138.8632  163.4171 C.ar    1  UNL1        0.0512
     32 C         138.5606  140.2993  163.3086 C.ar    1  UNL1        0.0808
     33 N         138.5361  140.9744  161.9693 N.ar    1  UNL1       -0.2896
     34 C         138.9910  139.8740  161.0570 C.3     1  UNL1        0.1416
     35 C         139.2473  138.6551  161.8929 C.3     1  UNL1        0.1459
     36 O         139.5801  137.3046  162.4546 O.3     1  UNL1       -0.3793
     37 H         139.8549  136.7142  161.7358 H       1  UNL1        0.2108
@<TRIPOS>BOND
     1    21    22    2
     2    22    23   ar
     3    23    24    1
     4    23    25   ar
     5    25    26   ar
     6    26    27   ar
     7    27    28   ar
     8    28    29   ar
     9    29    30    1
    10    29    31   ar
    11    31    32   ar
    12    32    33   ar
    13    33    34    1
    14    34    35    1
    15    35    36    1
    16    35    20    1
    17    20     1    1
    18     1     2    1
    19     2     3    1
    20     3     4    1
    21     4     7    1
    22     7     9    1
    23     9    10    1
    24    10    11   ar
    25    11    12   ar
    26    12    13   ar
    27    13    14   ar
    28    14    15   ar
    29    13    16    1
    30    16    17    1
    31    17    18    1
    32    18    19    1
    33     4     5    1
    34     5     6    1
    35    33    22   ar
    36     6     1    1
    37    32    26   ar
    38    15    10   ar
    39    35    31    1
    40    19    12    1
    41    36    37    1
    42     7     8    1
@<TRIPOS>MOLECULE
*****
 37 42 0 0 0
SMALL
GASTEIGER

@<TRIPOS>ATOM
      1 N         137.6431  141.0890  161.7220 N.3     1  UNL1       -0.2703
      2 C         138.1006  142.4131  161.1858 C.3     1  UNL1        0.0736
      3 C         138.3040  143.5701  162.1184 C.3     1  UNL1        0.0331
      4 C         138.0499  143.4032  163.5872 C.3     1  UNL1        0.0570
      5 C         137.5924  142.0792  164.1235 C.3     1  UNL1        0.0331
      6 C         137.3890  140.9221  163.1909 C.3     1  UNL1        0.0736
      7 N         138.2533  144.5604  164.5199 N.3     1  UNL1       -0.2934
      8 H         137.5069  144.5144  165.2134 H       1  UNL1        0.1236
      9 C         139.5407  144.6956  165.2777 C.3     1  UNL1        0.1152
     10 C         140.8360  144.3016  164.6319 C.ar    1  UNL1        0.0782
     11 C         141.5092  143.0193  165.0226 C.ar    1  UNL1        0.0562
     12 C         142.8045  142.6253  164.3769 C.ar    1  UNL1        0.1752
     13 C         143.4266  143.5135  163.3405 C.ar    1  UNL1        0.1914
     14 C         142.7533  144.7958  162.9498 C.ar    1  UNL1        0.1384
     15 N         141.4581  145.1898  163.5956 N.ar    1  UNL1       -0.2434
     16 O         144.7219  143.1195  162.6947 O.3     1  UNL1       -0.4668
     17 C         145.3951  141.8373  163.0854 C.3     1  UNL1        0.2527
     18 C         144.7730  140.9490  164.1218 C.3     1  UNL1        0.2526
     19 O         143.4777  141.3430  164.7675 O.3     1  UNL1       -0.4683
     20 C         137.4397  139.9320  160.7895 C.3     1  UNL1        0.1056
     21 O         141.8922  137.8831  162.7636 O.2     1  UNL1       -0.2645
     22 C         141.8278  138.0307  161.2723 C.ar    1  UNL1        0.2886
     23 C         142.9906  137.6055  160.4256 C.ar    1  UNL1        0.1974
     24 F         144.2180  137.0326  161.0703 F       1  UNL1       -0.1991
     25 C         142.9262  137.7531  158.9343 C.ar    1  UNL1        0.0551
     26 C         141.6989  138.3259  158.2896 C.ar    1  UNL1        0.0994
     27 N         141.6345  138.4735  156.7983 N.ar    1  UNL1       -0.2400
     28 C         140.4072  139.0464  156.1537 C.ar    1  UNL1        0.1282
     29 C         139.2443  139.4716  157.0004 C.ar    1  UNL1        0.1589
     30 F         138.0170  140.0445  156.3557 F       1  UNL1       -0.2027
     31 C         139.3087  139.3240  158.4917 C.ar    1  UNL1        0.0512
     32 C         140.5360  138.7512  159.1363 C.ar    1  UNL1        0.0808
     33 N         140.6005  138.6036  160.6277 N.ar    1  UNL1       -0.2896
     34 C         139.2641  139.1365  161.0519 C.3     1  UNL1        0.1416
     35 C         138.5183  139.5525  159.8187 C.3     1  UNL1        0.1459
     36 O         137.5470  140.0478  158.7884 O.3     1  UNL1       -0.3793
     37 H         136.7386  140.3554  159.2276 H       1  UNL1        0.2108
@<TRIPOS>BOND
     1    21    22    2
     2    22    23   ar
     3    23    24    1
     4    23    25   ar
     5    25    26   ar
     6    26    27   ar
     7    27    28   ar
     8    28    29   ar
     9    29    30    1
    10    29    31   ar
    11    31    32   ar
    12    32    33   ar
    13    33    34    1
    14    34    35    1
    15    35    36    1
    16    35    20    1
    17    20     1    1
    18     1     2    1
    19     2     3    1
    20     3     4    1
    21     4     7    1
    22     7     9    1
    23     9    10    1
    24    10    11   ar
    25    11    12   ar
    26    12    13   ar
    27    13    14   ar
    28    14    15   ar
    29    13    16    1
    30    16    17    1
    31    17    18    1
    32    18    19    1
    33     4     5    1
    34     5     6    1
    35    33    22   ar
    36     6     1    1
    37    32    26   ar
    38    15    10   ar
    39    35    31    1
    40    19    12    1
    41    36    37    1
    42     7     8    1
@<TRIPOS>MOLECULE
*****
 37 42 0 0 0
SMALL
GASTEIGER

@<TRIPOS>ATOM
      1 N         143.8970  139.5862  161.2030 N.3     1  UNL1       -0.2703
      2 C         143.7794  140.3005  159.8893 C.3     1  UNL1        0.0736
      3 C         143.1824  139.5995  158.7052 C.3     1  UNL1        0.0331
      4 C         142.7031  138.1840  158.8348 C.3     1  UNL1        0.0570
      5 C         142.8207  137.4696  160.1485 C.3     1  UNL1        0.0331
      6 C         143.4177  138.1707  161.3326 C.3     1  UNL1        0.0736
      7 N         142.1061  137.4829  157.6506 N.3     1  UNL1       -0.2934
      8 H         141.6231  138.1932  157.1006 H       1  UNL1        0.1236
      9 C         142.9895  136.7276  156.7023 C.3     1  UNL1        0.1152
     10 C         142.8667  135.2370  156.5889 C.ar    1  UNL1        0.0782
     11 C         143.8146  134.3474  157.3373 C.ar    1  UNL1        0.0562
     12 C         143.6918  132.8567  157.2239 C.ar    1  UNL1        0.1752
     13 C         142.6212  132.2557  156.3622 C.ar    1  UNL1        0.1914
     14 C         141.6733  133.1454  155.6138 C.ar    1  UNL1        0.1384
     15 N         141.7961  134.6361  155.7272 N.ar    1  UNL1       -0.2434
     16 O         142.4984  130.7650  156.2488 O.3     1  UNL1       -0.4668
     17 C         143.4462  129.8753  156.9971 C.3     1  UNL1        0.2527
     18 C         144.5169  130.4763  157.8589 C.3     1  UNL1        0.2526
     19 O         144.6397  131.9670  157.9723 O.3     1  UNL1       -0.4683
     20 C         144.4939  140.2872  162.3871 C.3     1  UNL1        0.1056
     21 O         141.0243  144.2488  162.8191 O.2     1  UNL1       -0.2645
     22 C         141.1393  143.3290  163.9985 C.ar    1  UNL1        0.2886
     23 C         140.2934  143.5605  165.2154 C.ar    1  UNL1        0.1974
     24 F         139.3325  144.7118  165.2530 F       1  UNL1       -0.1991
     25 C         140.4084  142.6407  166.3947 C.ar    1  UNL1        0.0551
     26 C         141.3692  141.4894  166.3571 C.ar    1  UNL1        0.0994
     27 N         141.4842  140.5696  167.5364 N.ar    1  UNL1       -0.2400
     28 C         142.4450  139.4184  167.4987 C.ar    1  UNL1        0.1282
     29 C         143.2909  139.1869  166.2818 C.ar    1  UNL1        0.1589
     30 F         144.2517  138.0356  166.2442 F       1  UNL1       -0.2027
     31 C         143.1759  140.1067  165.1025 C.ar    1  UNL1        0.0512
     32 C         142.2151  141.2579  165.1401 C.ar    1  UNL1        0.0808
     33 N         142.1001  142.1778  163.9608 N.ar    1  UNL1       -0.2896
     34 C         143.0965  141.5882  163.0071 C.3     1  UNL1        0.1416
     35 C         143.7176  140.3924  163.6662 C.3     1  UNL1        0.1459
     36 O         144.5011  139.1747  164.0580 O.3     1  UNL1       -0.3793
     37 H         145.0956  138.9257  163.3331 H       1  UNL1        0.2108
@<TRIPOS>BOND
     1    21    22    2
     2    22    23   ar
     3    23    24    1
     4    23    25   ar
     5    25    26   ar
     6    26    27   ar
     7    27    28   ar
     8    28    29   ar
     9    29    30    1
    10    29    31   ar
    11    31    32   ar
    12    32    33   ar
    13    33    34    1
    14    34    35    1
    15    35    36    1
    16    35    20    1
    17    20     1    1
    18     1     2    1
    19     2     3    1
    20     3     4    1
    21     4     7    1
    22     7     9    1
    23     9    10    1
    24    10    11   ar
    25    11    12   ar
    26    12    13   ar
    27    13    14   ar
    28    14    15   ar
    29    13    16    1
    30    16    17    1
    31    17    18    1
    32    18    19    1
    33     4     5    1
    34     5     6    1
    35    33    22   ar
    36     6     1    1
    37    32    26   ar
    38    15    10   ar
    39    35    31    1
    40    19    12    1
    41    36    37    1
    42     7     8    1
@<TRIPOS>MOLECULE
*****
 37 42 0 0 0
SMALL
GASTEIGER

@<TRIPOS>ATOM
      1 N         138.8334  139.5751  161.0702 N.3     1  UNL1       -0.2703
      2 C         138.2262  140.9134  161.3705 C.3     1  UNL1        0.0736
      3 C         138.1939  141.9766  160.3129 C.3     1  UNL1        0.0331
      4 C         138.7688  141.7015  158.9550 C.3     1  UNL1        0.0570
      5 C         139.3761  140.3632  158.6547 C.3     1  UNL1        0.0331
      6 C         139.4084  139.3000  159.7123 C.3     1  UNL1        0.0736
      7 N         138.7365  142.7648  157.8974 N.3     1  UNL1       -0.2934
      8 H         137.7959  143.1593  157.9051 H       1  UNL1        0.1236
      9 C         139.6910  143.9199  157.9658 C.3     1  UNL1        0.1152
     10 C         140.3387  144.2814  159.2695 C.ar    1  UNL1        0.0782
     11 C         141.6960  143.7399  159.6081 C.ar    1  UNL1        0.0562
     12 C         142.3438  144.1013  160.9118 C.ar    1  UNL1        0.1752
     13 C         141.6344  145.0043  161.8770 C.ar    1  UNL1        0.1914
     14 C         140.2771  145.5458  161.5383 C.ar    1  UNL1        0.1384
     15 N         139.6293  145.1843  160.2345 N.ar    1  UNL1       -0.2434
     16 O         142.2821  145.3657  163.1807 O.3     1  UNL1       -0.4668
     17 C         143.6394  144.8242  163.5193 C.3     1  UNL1        0.2527
     18 C         144.3488  143.9213  162.5542 C.3     1  UNL1        0.2526
     19 O         143.7011  143.5598  161.2505 O.3     1  UNL1       -0.4683
     20 C         138.8657  138.5119  162.1277 C.3     1  UNL1        0.1056
     21 O         144.1447  138.5117  162.3585 O.2     1  UNL1       -0.2645
     22 C         143.4193  138.7972  163.6400 C.ar    1  UNL1        0.2886
     23 C         144.1936  139.0631  164.8969 C.ar    1  UNL1        0.1974
     24 F         145.6933  139.0434  164.8722 F       1  UNL1       -0.1991
     25 C         143.4683  139.3487  166.1784 C.ar    1  UNL1        0.0551
     26 C         141.9686  139.3684  166.2031 C.ar    1  UNL1        0.0994
     27 N         141.2433  139.6540  167.4846 N.ar    1  UNL1       -0.2400
     28 C         139.7436  139.6736  167.5093 C.ar    1  UNL1        0.1282
     29 C         138.9693  139.4077  166.2524 C.ar    1  UNL1        0.1589
     30 F         137.4696  139.4274  166.2771 F       1  UNL1       -0.2027
     31 C         139.6946  139.1222  164.9709 C.ar    1  UNL1        0.0512
     32 C         141.1942  139.1025  164.9462 C.ar    1  UNL1        0.0808
     33 N         141.9196  138.8169  163.6647 N.ar    1  UNL1       -0.2896
     34 C         140.7863  138.6185  162.7023 C.3     1  UNL1        0.1416
     35 C         139.5016  138.7947  163.4565 C.3     1  UNL1        0.1459
     36 O         138.0840  138.9118  163.9328 O.3     1  UNL1       -0.3793
     37 H         137.4795  138.7562  163.1904 H       1  UNL1        0.2108
@<TRIPOS>BOND
     1    21    22    2
     2    22    23   ar
     3    23    24    1
     4    23    25   ar
     5    25    26   ar
     6    26    27   ar
     7    27    28   ar
     8    28    29   ar
     9    29    30    1
    10    29    31   ar
    11    31    32   ar
    12    32    33   ar
    13    33    34    1
    14    34    35    1
    15    35    36    1
    16    35    20    1
    17    20     1    1
    18     1     2    1
    19     2     3    1
    20     3     4    1
    21     4     7    1
    22     7     9    1
    23     9    10    1
    24    10    11   ar
    25    11    12   ar
    26    12    13   ar
    27    13    14   ar
    28    14    15   ar
    29    13    16    1
    30    16    17    1
    31    17    18    1
    32    18    19    1
    33     4     5    1
    34     5     6    1
    35    33    22   ar
    36     6     1    1
    37    32    26   ar
    38    15    10   ar
    39    35    31    1
    40    19    12    1
    41    36    37    1
    42     7     8    1
