@<TRIPOS>MOLECULE
*****
 26 28 0 0 0
SMALL
GASTEIGER

@<TRIPOS>ATOM
      1 C         139.2007  139.7698  167.0673 C.3     1  UNL1        0.0258
      2 C         139.6320  140.5313  168.2855 C.3     1  UNL1        0.0692
      3 N         140.0856  139.7930  169.5099 N.3     1  UNL1       -0.2974
      4 H         139.7433  140.3185  170.3143 H       1  UNL1        0.1232
      5 C         141.5478  139.5510  169.7411 C.3     1  UNL1        0.0689
      6 C         142.5516  139.9869  168.7152 C.3     1  UNL1        0.0218
      7 C         142.8509  139.1072  167.5377 C.3     1  UNL1        0.0278
      8 C         144.4373  140.9066  163.7304 C.ar    1  UNL1       -0.0000
      9 C         143.7089  141.7669  164.7200 C.ar    1  UNL1       -0.0003
     10 C         143.1801  141.1671  165.9891 C.ar    1  UNL1       -0.0043
     11 C         143.3797  139.7070  166.2686 C.ar    1  UNL1       -0.0221
     12 C         144.1080  138.8467  165.2791 C.ar    1  UNL1       -0.0043
     13 C         144.6368  139.4464  164.0100 C.ar    1  UNL1       -0.0003
     14 C         139.5224  140.2970  165.7004 C.3     1  UNL1        0.0459
     15 C         139.1635  141.7074  165.3368 C.ar    1  UNL1       -0.0184
     16 C         140.0663  142.8373  165.7344 C.ar    1  UNL1       -0.0040
     17 C         139.7073  144.2476  165.3709 C.ar    1  UNL1       -0.0003
     18 C         138.4455  144.5279  164.6098 C.ar    1  UNL1       -0.0000
     19 C         137.5427  143.3980  164.2122 C.ar    1  UNL1       -0.0003
     20 C         137.9016  141.9877  164.5758 C.ar    1  UNL1       -0.0040
     21 C         140.2031  139.4139  164.6970 C.ar    1  UNL1       -0.0184
     22 C         140.3879  137.9537  164.9863 C.ar    1  UNL1       -0.0040
     23 C         141.0686  137.0707  163.9828 C.ar    1  UNL1       -0.0003
     24 C         141.5644  137.6478  162.6901 C.ar    1  UNL1       -0.0000
     25 C         141.3796  139.1079  162.4008 C.ar    1  UNL1       -0.0003
     26 C         140.6989  139.9910  163.4042 C.ar    1  UNL1       -0.0040
@<TRIPOS>BOND
     1     8     9   ar
     2     9    10   ar
     3    10    11   ar
     4    11     7    1
     5     7     6    1
     6     6     5    1
     7     5     3    1
     8     3     2    1
     9     2     1    1
    10     1    14    1
    11    14    15    1
    12    15    16   ar
    13    16    17   ar
    14    17    18   ar
    15    18    19   ar
    16    19    20   ar
    17    14    21    1
    18    21    22   ar
    19    22    23   ar
    20    23    24   ar
    21    24    25   ar
    22    25    26   ar
    23    11    12   ar
    24    12    13   ar
    25    13     8   ar
    26    20    15   ar
    27    26    21   ar
    28     3     4    1
@<TRIPOS>MOLECULE
*****
 26 28 0 0 0
SMALL
GASTEIGER

@<TRIPOS>ATOM
      1 C         138.0497  139.4325  166.0430 C.3     1  UNL1        0.0258
      2 C         138.5559  139.0407  167.3995 C.3     1  UNL1        0.0692
      3 N         139.0601  140.0911  168.3441 N.3     1  UNL1       -0.2974
      4 H         139.0127  140.9808  167.8476 H       1  UNL1        0.1232
      5 C         140.4441  139.9860  168.9132 C.3     1  UNL1        0.0689
      6 C         141.6276  140.3952  168.0874 C.3     1  UNL1        0.0218
      7 C         142.2820  139.4037  167.1717 C.3     1  UNL1        0.0278
      8 C         144.9261  140.8365  163.8243 C.ar    1  UNL1       -0.0000
      9 C         144.9358  139.3900  164.2210 C.ar    1  UNL1       -0.0003
     10 C         144.0544  138.9124  165.3368 C.ar    1  UNL1       -0.0043
     11 C         143.1634  139.8813  166.0559 C.ar    1  UNL1       -0.0221
     12 C         143.1537  141.3278  165.6592 C.ar    1  UNL1       -0.0043
     13 C         144.0351  141.8054  164.5434 C.ar    1  UNL1       -0.0003
     14 C         138.9454  140.1705  165.0926 C.3     1  UNL1        0.0459
     15 C         139.9341  139.4155  164.2545 C.ar    1  UNL1       -0.0184
     16 C         140.7178  140.1295  163.1934 C.ar    1  UNL1       -0.0040
     17 C         141.7064  139.3745  162.3553 C.ar    1  UNL1       -0.0003
     18 C         141.9114  137.9054  162.5783 C.ar    1  UNL1       -0.0000
     19 C         141.1277  137.1913  163.6393 C.ar    1  UNL1       -0.0003
     20 C         140.1391  137.9464  164.4774 C.ar    1  UNL1       -0.0040
     21 C         138.8524  141.6633  164.9804 C.ar    1  UNL1       -0.0184
     22 C         137.8225  142.2854  164.0846 C.ar    1  UNL1       -0.0040
     23 C         137.7296  143.7784  163.9724 C.ar    1  UNL1       -0.0003
     24 C         138.6664  144.6492  164.7559 C.ar    1  UNL1       -0.0000
     25 C         139.6962  144.0271  165.6517 C.ar    1  UNL1       -0.0003
     26 C         139.7892  142.5342  165.7640 C.ar    1  UNL1       -0.0040
@<TRIPOS>BOND
     1     8     9   ar
     2     9    10   ar
     3    10    11   ar
     4    11     7    1
     5     7     6    1
     6     6     5    1
     7     5     3    1
     8     3     2    1
     9     2     1    1
    10     1    14    1
    11    14    15    1
    12    15    16   ar
    13    16    17   ar
    14    17    18   ar
    15    18    19   ar
    16    19    20   ar
    17    14    21    1
    18    21    22   ar
    19    22    23   ar
    20    23    24   ar
    21    24    25   ar
    22    25    26   ar
    23    11    12   ar
    24    12    13   ar
    25    13     8   ar
    26    20    15   ar
    27    26    21   ar
    28     3     4    1
@<TRIPOS>MOLECULE
*****
 26 28 0 0 0
SMALL
GASTEIGER

@<TRIPOS>ATOM
      1 C         140.3245  143.1013  165.1624 C.3     1  UNL1        0.0258
      2 C         139.2620  144.1338  165.3970 C.3     1  UNL1        0.0692
      3 N         137.9638  144.0573  164.6494 N.3     1  UNL1       -0.2974
      4 H         137.5659  143.1385  164.8436 H       1  UNL1        0.1232
      5 C         137.9449  144.2314  163.1596 C.3     1  UNL1        0.0689
      6 C         137.7766  143.0376  162.2671 C.3     1  UNL1        0.0218
      7 C         137.6422  141.6681  162.8639 C.3     1  UNL1        0.0278
      8 C         140.2148  138.2961  161.3601 C.ar    1  UNL1       -0.0000
      9 C         140.8213  139.6425  161.6230 C.ar    1  UNL1       -0.0003
     10 C         139.9638  140.7665  162.1243 C.ar    1  UNL1       -0.0043
     11 C         138.4997  140.5441  162.3626 C.ar    1  UNL1       -0.0221
     12 C         137.8931  139.1976  162.0998 C.ar    1  UNL1       -0.0043
     13 C         138.7507  138.0736  161.5985 C.ar    1  UNL1       -0.0003
     14 C         140.5513  142.0156  166.1722 C.3     1  UNL1        0.0459
     15 C         140.1212  140.6102  165.8718 C.ar    1  UNL1       -0.0184
     16 C         141.1150  139.6183  165.3442 C.ar    1  UNL1       -0.0040
     17 C         140.6849  138.2131  165.0439 C.ar    1  UNL1       -0.0003
     18 C         139.2610  137.7997  165.2711 C.ar    1  UNL1       -0.0000
     19 C         138.2672  138.7917  165.7986 C.ar    1  UNL1       -0.0003
     20 C         138.6973  140.1969  166.0990 C.ar    1  UNL1       -0.0040
     21 C         141.2081  142.3351  167.4823 C.ar    1  UNL1       -0.0184
     22 C         142.6571  142.0101  167.6938 C.ar    1  UNL1       -0.0040
     23 C         143.3139  142.3296  169.0041 C.ar    1  UNL1       -0.0003
     24 C         142.5217  142.9741  170.1027 C.ar    1  UNL1       -0.0000
     25 C         141.0726  143.2991  169.8911 C.ar    1  UNL1       -0.0003
     26 C         140.4158  142.9796  168.5810 C.ar    1  UNL1       -0.0040
@<TRIPOS>BOND
     1     8     9   ar
     2     9    10   ar
     3    10    11   ar
     4    11     7    1
     5     7     6    1
     6     6     5    1
     7     5     3    1
     8     3     2    1
     9     2     1    1
    10     1    14    1
    11    14    15    1
    12    15    16   ar
    13    16    17   ar
    14    17    18   ar
    15    18    19   ar
    16    19    20   ar
    17    14    21    1
    18    21    22   ar
    19    22    23   ar
    20    23    24   ar
    21    24    25   ar
    22    25    26   ar
    23    11    12   ar
    24    12    13   ar
    25    13     8   ar
    26    20    15   ar
    27    26    21   ar
    28     3     4    1
@<TRIPOS>MOLECULE
*****
 26 28 0 0 0
SMALL
GASTEIGER

@<TRIPOS>ATOM
      1 C         138.3438  139.1524  165.6173 C.3     1  UNL1        0.0258
      2 C         138.9543  137.9536  164.9541 C.3     1  UNL1        0.0692
      3 N         139.9588  138.1348  163.8549 N.3     1  UNL1       -0.2974
      4 H         140.7883  138.5495  164.2795 H       1  UNL1        0.1232
      5 C         139.6188  138.9742  162.6591 C.3     1  UNL1        0.0689
      6 C         140.4698  140.1583  162.3076 C.3     1  UNL1        0.0218
      7 C         141.6631  140.5007  163.1495 C.3     1  UNL1        0.0278
      8 C         142.8870  144.7990  163.6753 C.ar    1  UNL1       -0.0000
      9 C         143.4466  143.7435  164.5824 C.ar    1  UNL1       -0.0003
     10 C         143.0386  142.3108  164.4071 C.ar    1  UNL1       -0.0043
     11 C         142.0710  141.9335  163.3247 C.ar    1  UNL1       -0.0221
     12 C         141.5115  142.9890  162.4177 C.ar    1  UNL1       -0.0043
     13 C         141.9195  144.4218  162.5929 C.ar    1  UNL1       -0.0003
     14 C         139.2198  140.2718  166.0965 C.3     1  UNL1        0.0459
     15 C         139.0448  141.6529  165.5380 C.ar    1  UNL1       -0.0184
     16 C         138.0623  141.8952  164.4308 C.ar    1  UNL1       -0.0040
     17 C         137.8874  143.2763  163.8723 C.ar    1  UNL1       -0.0003
     18 C         138.6949  144.4151  164.4210 C.ar    1  UNL1       -0.0000
     19 C         139.6775  144.1728  165.5281 C.ar    1  UNL1       -0.0003
     20 C         139.8524  142.7917  166.0866 C.ar    1  UNL1       -0.0040
     21 C         140.2708  140.0101  167.1342 C.ar    1  UNL1       -0.0184
     22 C         139.9217  140.0857  168.5911 C.ar    1  UNL1       -0.0040
     23 C         140.9727  139.8239  169.6288 C.ar    1  UNL1       -0.0003
     24 C         142.3729  139.4866  169.2097 C.ar    1  UNL1       -0.0000
     25 C         142.7221  139.4110  167.7528 C.ar    1  UNL1       -0.0003
     26 C         141.6711  139.6727  166.7151 C.ar    1  UNL1       -0.0040
@<TRIPOS>BOND
     1     8     9   ar
     2     9    10   ar
     3    10    11   ar
     4    11     7    1
     5     7     6    1
     6     6     5    1
     7     5     3    1
     8     3     2    1
     9     2     1    1
    10     1    14    1
    11    14    15    1
    12    15    16   ar
    13    16    17   ar
    14    17    18   ar
    15    18    19   ar
    16    19    20   ar
    17    14    21    1
    18    21    22   ar
    19    22    23   ar
    20    23    24   ar
    21    24    25   ar
    22    25    26   ar
    23    11    12   ar
    24    12    13   ar
    25    13     8   ar
    26    20    15   ar
    27    26    21   ar
    28     3     4    1
@<TRIPOS>MOLECULE
*****
 26 28 0 0 0
SMALL
GASTEIGER

@<TRIPOS>ATOM
      1 C         142.1021  142.2063  161.9003 C.3     1  UNL1        0.0258
      2 C         141.9092  143.5782  161.3253 C.3     1  UNL1        0.0692
      3 N         142.7659  144.7160  161.7961 N.3     1  UNL1       -0.2974
      4 H         143.6660  144.6210  161.3259 H       1  UNL1        0.1232
      5 C         143.0565  144.8809  163.2584 C.3     1  UNL1        0.0689
      6 C         144.1707  144.1034  163.8940 C.3     1  UNL1        0.0218
      7 C         143.9389  143.3829  165.1890 C.3     1  UNL1        0.0278
      8 C         143.8753  138.8843  165.2809 C.ar    1  UNL1       -0.0000
      9 C         144.7801  139.6022  164.3239 C.ar    1  UNL1       -0.0003
     10 C         144.8013  141.1017  164.2933 C.ar    1  UNL1       -0.0043
     11 C         143.9177  141.8833  165.2197 C.ar    1  UNL1       -0.0221
     12 C         143.0129  141.1654  166.1767 C.ar    1  UNL1       -0.0043
     13 C         142.9917  139.6659  166.2073 C.ar    1  UNL1       -0.0003
     14 C         141.0440  141.6050  162.7772 C.3     1  UNL1        0.0459
     15 C         140.0110  142.4847  163.4169 C.ar    1  UNL1       -0.0184
     16 C         138.6793  142.6810  162.7551 C.ar    1  UNL1       -0.0040
     17 C         137.6463  143.5606  163.3948 C.ar    1  UNL1       -0.0003
     18 C         137.9451  144.2439  164.6962 C.ar    1  UNL1       -0.0000
     19 C         139.2768  144.0476  165.3580 C.ar    1  UNL1       -0.0003
     20 C         140.3097  143.1679  164.7183 C.ar    1  UNL1       -0.0040
     21 C         141.0189  140.1241  163.0143 C.ar    1  UNL1       -0.0184
     22 C         141.8352  139.2118  162.1476 C.ar    1  UNL1       -0.0040
     23 C         141.8101  137.7308  162.3848 C.ar    1  UNL1       -0.0003
     24 C         140.9687  137.1623  163.4888 C.ar    1  UNL1       -0.0000
     25 C         140.1523  138.0746  164.3555 C.ar    1  UNL1       -0.0003
     26 C         140.1774  139.5555  164.1183 C.ar    1  UNL1       -0.0040
@<TRIPOS>BOND
     1     8     9   ar
     2     9    10   ar
     3    10    11   ar
     4    11     7    1
     5     7     6    1
     6     6     5    1
     7     5     3    1
     8     3     2    1
     9     2     1    1
    10     1    14    1
    11    14    15    1
    12    15    16   ar
    13    16    17   ar
    14    17    18   ar
    15    18    19   ar
    16    19    20   ar
    17    14    21    1
    18    21    22   ar
    19    22    23   ar
    20    23    24   ar
    21    24    25   ar
    22    25    26   ar
    23    11    12   ar
    24    12    13   ar
    25    13     8   ar
    26    20    15   ar
    27    26    21   ar
    28     3     4    1
@<TRIPOS>MOLECULE
*****
 26 28 0 0 0
SMALL
GASTEIGER

@<TRIPOS>ATOM
      1 C         140.8227  143.1734  165.3313 C.3     1  UNL1        0.0258
      2 C         139.5739  143.8753  165.7759 C.3     1  UNL1        0.0692
      3 N         138.7701  144.6718  164.7913 N.3     1  UNL1       -0.2974
      4 H         138.0253  145.1270  165.3190 H       1  UNL1        0.1232
      5 C         138.1191  143.9870  163.6262 C.3     1  UNL1        0.0689
      6 C         137.4829  142.6407  163.8074 C.3     1  UNL1        0.0218
      7 C         138.0437  141.4445  163.0972 C.3     1  UNL1        0.0278
      8 C         138.8083  137.6344  165.3664 C.ar    1  UNL1       -0.0000
      9 C         138.3762  138.8699  166.0991 C.ar    1  UNL1       -0.0003
     10 C         138.1214  140.1399  165.3427 C.ar    1  UNL1       -0.0043
     11 C         138.2986  140.1744  163.8536 C.ar    1  UNL1       -0.0221
     12 C         138.7306  138.9390  163.1209 C.ar    1  UNL1       -0.0043
     13 C         138.9855  137.6689  163.8773 C.ar    1  UNL1       -0.0003
     14 C         141.2893  141.9437  166.0525 C.3     1  UNL1        0.0459
     15 C         141.7444  140.7449  165.2740 C.ar    1  UNL1       -0.0184
     16 C         142.0265  139.4534  165.9827 C.ar    1  UNL1       -0.0040
     17 C         142.4816  138.2547  165.2042 C.ar    1  UNL1       -0.0003
     18 C         142.6545  138.3476  163.7171 C.ar    1  UNL1       -0.0000
     19 C         142.3724  139.6392  163.0085 C.ar    1  UNL1       -0.0003
     20 C         141.9173  140.8378  163.7869 C.ar    1  UNL1       -0.0040
     21 C         141.3007  141.9127  167.5521 C.ar    1  UNL1       -0.0184
     22 C         142.4970  142.4169  168.3036 C.ar    1  UNL1       -0.0040
     23 C         142.5084  142.3859  169.8033 C.ar    1  UNL1       -0.0003
     24 C         141.3236  141.8508  170.5514 C.ar    1  UNL1       -0.0000
     25 C         140.1273  141.3466  169.7999 C.ar    1  UNL1       -0.0003
     26 C         140.1158  141.3776  168.3003 C.ar    1  UNL1       -0.0040
@<TRIPOS>BOND
     1     8     9   ar
     2     9    10   ar
     3    10    11   ar
     4    11     7    1
     5     7     6    1
     6     6     5    1
     7     5     3    1
     8     3     2    1
     9     2     1    1
    10     1    14    1
    11    14    15    1
    12    15    16   ar
    13    16    17   ar
    14    17    18   ar
    15    18    19   ar
    16    19    20   ar
    17    14    21    1
    18    21    22   ar
    19    22    23   ar
    20    23    24   ar
    21    24    25   ar
    22    25    26   ar
    23    11    12   ar
    24    12    13   ar
    25    13     8   ar
    26    20    15   ar
    27    26    21   ar
    28     3     4    1
@<TRIPOS>MOLECULE
*****
 26 28 0 0 0
SMALL
GASTEIGER

@<TRIPOS>ATOM
      1 C         138.3355  139.0902  165.6241 C.3     1  UNL1        0.0258
      2 C         138.8958  138.0262  164.7275 C.3     1  UNL1        0.0692
      3 N         138.9689  138.2551  163.2468 N.3     1  UNL1       -0.2974
      4 H         138.5550  137.4361  162.8015 H       1  UNL1        0.1232
      5 C         140.2972  138.4816  162.5876 C.3     1  UNL1        0.0689
      6 C         141.1709  139.6170  163.0317 C.3     1  UNL1        0.0218
      7 C         141.0498  140.9589  162.3724 C.3     1  UNL1        0.0278
      8 C         143.2571  144.5006  164.0559 C.ar    1  UNL1       -0.0000
      9 C         143.4311  143.1452  164.6744 C.ar    1  UNL1       -0.0003
     10 C         142.6954  141.9646  164.1132 C.ar    1  UNL1       -0.0043
     11 C         141.7856  142.1394  162.9336 C.ar    1  UNL1       -0.0221
     12 C         141.6115  143.4948  162.3151 C.ar    1  UNL1       -0.0043
     13 C         142.3472  144.6754  162.8763 C.ar    1  UNL1       -0.0003
     14 C         139.2084  140.2203  166.0832 C.3     1  UNL1        0.0459
     15 C         140.2572  139.9810  167.1286 C.ar    1  UNL1       -0.0184
     16 C         139.9028  140.0786  168.5828 C.ar    1  UNL1       -0.0040
     17 C         140.9516  139.8393  169.6280 C.ar    1  UNL1       -0.0003
     18 C         142.3549  139.5023  169.2191 C.ar    1  UNL1       -0.0000
     19 C         142.7094  139.4047  167.7649 C.ar    1  UNL1       -0.0003
     20 C         141.6605  139.6441  166.7196 C.ar    1  UNL1       -0.0040
     21 C         139.0325  141.5898  165.4970 C.ar    1  UNL1       -0.0184
     22 C         139.8312  142.7421  166.0301 C.ar    1  UNL1       -0.0040
     23 C         139.6552  144.1116  165.4439 C.ar    1  UNL1       -0.0003
     24 C         138.6806  144.3287  164.3246 C.ar    1  UNL1       -0.0000
     25 C         137.8818  143.1764  163.7915 C.ar    1  UNL1       -0.0003
     26 C         138.0578  141.8069  164.3777 C.ar    1  UNL1       -0.0040
@<TRIPOS>BOND
     1     8     9   ar
     2     9    10   ar
     3    10    11   ar
     4    11     7    1
     5     7     6    1
     6     6     5    1
     7     5     3    1
     8     3     2    1
     9     2     1    1
    10     1    14    1
    11    14    15    1
    12    15    16   ar
    13    16    17   ar
    14    17    18   ar
    15    18    19   ar
    16    19    20   ar
    17    14    21    1
    18    21    22   ar
    19    22    23   ar
    20    23    24   ar
    21    24    25   ar
    22    25    26   ar
    23    11    12   ar
    24    12    13   ar
    25    13     8   ar
    26    20    15   ar
    27    26    21   ar
    28     3     4    1
@<TRIPOS>MOLECULE
*****
 26 28 0 0 0
SMALL
GASTEIGER

@<TRIPOS>ATOM
      1 C         141.1477  143.4194  165.2611 C.3     1  UNL1        0.0258
      2 C         142.2143  143.1082  164.2534 C.3     1  UNL1        0.0692
      3 N         143.6486  143.0179  164.6830 N.3     1  UNL1       -0.2974
      4 H         144.0370  143.9585  164.6123 H       1  UNL1        0.1232
      5 C         144.5924  142.1042  163.9588 C.3     1  UNL1        0.0689
      6 C         144.6660  140.6532  164.3319 C.3     1  UNL1        0.0218
      7 C         143.5654  140.0293  165.1376 C.3     1  UNL1        0.0278
      8 C         140.4690  137.4675  163.1129 C.ar    1  UNL1       -0.0000
      9 C         140.9490  138.7261  162.4532 C.ar    1  UNL1       -0.0003
     10 C         141.9811  139.5801  163.1281 C.ar    1  UNL1       -0.0043
     11 C         142.5332  139.1754  164.4627 C.ar    1  UNL1       -0.0221
     12 C         142.0532  137.9167  165.1225 C.ar    1  UNL1       -0.0043
     13 C         141.0210  137.0628  164.4476 C.ar    1  UNL1       -0.0003
     14 C         140.8338  142.4357  166.3491 C.3     1  UNL1        0.0459
     15 C         139.9095  141.2860  166.0770 C.ar    1  UNL1       -0.0184
     16 C         139.1107  141.2501  164.8079 C.ar    1  UNL1       -0.0040
     17 C         138.1865  140.1005  164.5358 C.ar    1  UNL1       -0.0003
     18 C         138.0610  138.9868  165.5328 C.ar    1  UNL1       -0.0000
     19 C         138.8598  139.0228  166.8019 C.ar    1  UNL1       -0.0003
     20 C         139.7840  140.1724  167.0740 C.ar    1  UNL1       -0.0040
     21 C         141.4442  142.6016  167.7092 C.ar    1  UNL1       -0.0184
     22 C         140.6440  143.2128  168.8209 C.ar    1  UNL1       -0.0040
     23 C         141.2544  143.3787  170.1811 C.ar    1  UNL1       -0.0003
     24 C         142.6651  142.9334  170.4294 C.ar    1  UNL1       -0.0000
     25 C         143.4654  142.3221  169.3176 C.ar    1  UNL1       -0.0003
     26 C         142.8550  142.1563  167.9575 C.ar    1  UNL1       -0.0040
@<TRIPOS>BOND
     1     8     9   ar
     2     9    10   ar
     3    10    11   ar
     4    11     7    1
     5     7     6    1
     6     6     5    1
     7     5     3    1
     8     3     2    1
     9     2     1    1
    10     1    14    1
    11    14    15    1
    12    15    16   ar
    13    16    17   ar
    14    17    18   ar
    15    18    19   ar
    16    19    20   ar
    17    14    21    1
    18    21    22   ar
    19    22    23   ar
    20    23    24   ar
    21    24    25   ar
    22    25    26   ar
    23    11    12   ar
    24    12    13   ar
    25    13     8   ar
    26    20    15   ar
    27    26    21   ar
    28     3     4    1
@<TRIPOS>MOLECULE
*****
 26 28 0 0 0
SMALL
GASTEIGER

@<TRIPOS>ATOM
      1 C         139.7212  141.1708  165.5293 C.3     1  UNL1        0.0258
      2 C         138.8940  140.0205  166.0219 C.3     1  UNL1        0.0692
      3 N         138.4562  138.9489  165.0680 N.3     1  UNL1       -0.2974
      4 H         137.4881  138.7262  165.2995 H       1  UNL1        0.1232
      5 C         139.1983  137.6465  165.0111 C.3     1  UNL1        0.0689
      6 C         140.5278  137.5705  164.3206 C.3     1  UNL1        0.0218
      7 C         141.7703  138.0132  165.0347 C.3     1  UNL1        0.0278
      8 C         144.6833  140.7647  162.9869 C.ar    1  UNL1       -0.0000
      9 C         143.2893  140.6168  162.4533 C.ar    1  UNL1       -0.0003
     10 C         142.3183  139.6996  163.1359 C.ar    1  UNL1       -0.0043
     11 C         142.7413  138.9303  164.3521 C.ar    1  UNL1       -0.0221
     12 C         144.1353  139.0782  164.8858 C.ar    1  UNL1       -0.0043
     13 C         145.1063  139.9954  164.2031 C.ar    1  UNL1       -0.0003
     14 C         140.9460  141.5920  166.2859 C.3     1  UNL1        0.0459
     15 C         141.9709  142.4668  165.6267 C.ar    1  UNL1       -0.0184
     16 C         141.6064  143.2611  164.4076 C.ar    1  UNL1       -0.0040
     17 C         142.6313  144.1358  163.7484 C.ar    1  UNL1       -0.0003
     18 C         144.0205  144.2162  164.3084 C.ar    1  UNL1       -0.0000
     19 C         144.3849  143.4219  165.5274 C.ar    1  UNL1       -0.0003
     20 C         143.3601  142.5472  166.1866 C.ar    1  UNL1       -0.0040
     21 C         141.1460  141.1384  167.7016 C.ar    1  UNL1       -0.0184
     22 C         141.9814  139.9263  167.9899 C.ar    1  UNL1       -0.0040
     23 C         142.1814  139.4728  169.4057 C.ar    1  UNL1       -0.0003
     24 C         141.5461  140.2313  170.5330 C.ar    1  UNL1       -0.0000
     25 C         140.7107  141.4433  170.2447 C.ar    1  UNL1       -0.0003
     26 C         140.5107  141.8969  168.8290 C.ar    1  UNL1       -0.0040
@<TRIPOS>BOND
     1     8     9   ar
     2     9    10   ar
     3    10    11   ar
     4    11     7    1
     5     7     6    1
     6     6     5    1
     7     5     3    1
     8     3     2    1
     9     2     1    1
    10     1    14    1
    11    14    15    1
    12    15    16   ar
    13    16    17   ar
    14    17    18   ar
    15    18    19   ar
    16    19    20   ar
    17    14    21    1
    18    21    22   ar
    19    22    23   ar
    20    23    24   ar
    21    24    25   ar
    22    25    26   ar
    23    11    12   ar
    24    12    13   ar
    25    13     8   ar
    26    20    15   ar
    27    26    21   ar
    28     3     4    1
