@<TRIPOS>MOLECULE
*****
 37 41 0 0 0
SMALL
GASTEIGER

@<TRIPOS>ATOM
      1 N         143.2025  140.6616  163.0046 N.3     1  UNL1       -0.2750
      2 C         143.7176  142.0693  162.9497 C.3     1  UNL1        0.0737
      3 C         143.5187  142.8930  161.7119 C.3     1  UNL1        0.0371
      4 C         142.8047  142.3089  160.5291 C.3     1  UNL1        0.0759
      5 C         142.2896  140.9012  160.5840 C.3     1  UNL1        0.0371
      6 C         142.4885  140.0776  161.8218 C.3     1  UNL1        0.0737
      7 C         142.4910  139.9603  168.6476 C.2     1  UNL1        0.2484
      8 O         142.9204  138.8289  169.5339 O.2     1  UNL1       -0.2699
      9 N         142.7944  139.9195  167.1792 N.am    1  UNL1       -0.2760
     10 C         142.3650  141.0509  166.2929 C.3     1  UNL1        0.0950
     11 C         142.6684  141.0102  164.8245 C.3     1  UNL1        0.0362
     12 C         143.4014  139.8379  164.2424 C.3     1  UNL1        0.0487
     13 C         144.0652  138.9518  163.2303 C.3     1  UNL1        0.0161
     14 C         143.8308  138.7066  165.1286 C.3     1  UNL1        0.0362
     15 C         143.5273  138.7474  166.5971 C.3     1  UNL1        0.0950
     16 C         144.0221  142.3254  169.6781 C.3     1  UNL1        0.0312
     17 C         142.5236  142.3150  169.7449 C.ar    1  UNL1       -0.0178
     18 C         141.7907  143.4872  170.3270 C.ar    1  UNL1       -0.0041
     19 C         140.2922  143.4768  170.3939 C.ar    1  UNL1       -0.0006
     20 C         139.5267  142.2942  169.8786 C.ar    1  UNL1       -0.0041
     21 C         140.2596  141.1221  169.2966 C.ar    1  UNL1       -0.0178
     22 C         139.4940  139.9395  168.7813 C.3     1  UNL1        0.0312
     23 C         141.7581  141.1325  169.2297 C.ar    1  UNL1        0.0457
     24 N         142.6058  143.1325  159.2913 N.pl3   1  UNL1       -0.3051
     25 C         143.4765  142.9054  158.0913 C.ar    1  UNL1        0.0480
     26 C         142.9238  143.1160  156.7128 C.ar    1  UNL1        0.0145
     27 C         143.7946  142.8889  155.5128 C.ar    1  UNL1        0.0013
     28 C         145.2181  142.4511  155.6912 C.ar    1  UNL1        0.0001
     29 C         145.7709  142.2405  157.0696 C.ar    1  UNL1        0.0013
     30 C         144.9001  142.4676  158.2697 C.ar    1  UNL1        0.0145
     31 C         141.5359  144.1833  159.2536 C.3     1  UNL1        0.1177
     32 C         140.5379  144.2778  160.3694 C.ar    1  UNL1       -0.0024
     33 C         140.6134  145.4112  161.3491 C.ar    1  UNL1       -0.0026
     34 C         139.6154  145.5057  162.4649 C.ar    1  UNL1       -0.0003
     35 C         138.5420  144.4669  162.6011 C.ar    1  UNL1       -0.0000
     36 C         138.4665  143.3335  161.6214 C.ar    1  UNL1       -0.0003
     37 C         139.4645  143.2390  160.5055 C.ar    1  UNL1       -0.0026
@<TRIPOS>BOND
     1    16    17    1
     2    17    18   ar
     3    18    19   ar
     4    19    20   ar
     5    20    21   ar
     6    21    22    1
     7    21    23   ar
     8    23     7    1
     9     7     8    2
    10     7     9   am
    11     9    10    1
    12    10    11    1
    13    11    12    1
    14    12    13    1
    15    12     1    1
    16     1     2    1
    17     2     3    1
    18     3     4    1
    19     4    24    1
    20    24    31    1
    21    31    32    1
    22    32    33   ar
    23    33    34   ar
    24    34    35   ar
    25    35    36   ar
    26    36    37   ar
    27    24    25    1
    28    25    26   ar
    29    26    27   ar
    30    27    28   ar
    31    28    29   ar
    32    29    30   ar
    33     4     5    1
    34     5     6    1
    35    12    14    1
    36    14    15    1
    37    23    17   ar
    38    15     9    1
    39     6     1    1
    40    37    32   ar
    41    30    25   ar
@<TRIPOS>MOLECULE
*****
 37 41 0 0 0
SMALL
GASTEIGER

@<TRIPOS>ATOM
      1 N         140.1645  138.9699  163.6440 N.3     1  UNL1       -0.2750
      2 C         140.0351  140.1522  162.7299 C.3     1  UNL1        0.0737
      3 C         140.7603  140.1679  161.4169 C.3     1  UNL1        0.0371
      4 C         141.6148  139.0014  161.0180 C.3     1  UNL1        0.0759
      5 C         141.7441  137.8192  161.9321 C.3     1  UNL1        0.0371
      6 C         141.0190  137.8035  163.2451 C.3     1  UNL1        0.0737
      7 C         139.9761  140.3286  169.2082 C.2     1  UNL1        0.2484
      8 O         138.9039  140.0636  170.2231 O.2     1  UNL1       -0.2699
      9 N         139.7972  139.8704  167.7911 N.am    1  UNL1       -0.2760
     10 C         140.8695  140.1354  166.7762 C.3     1  UNL1        0.0950
     11 C         140.6905  139.6773  165.3591 C.3     1  UNL1        0.0362
     12 C         139.4393  138.9542  164.9570 C.3     1  UNL1        0.0487
     13 C         138.4399  138.2366  164.0988 C.3     1  UNL1        0.0161
     14 C         138.3671  138.6893  165.9719 C.3     1  UNL1        0.0362
     15 C         138.5460  139.1474  167.3890 C.3     1  UNL1        0.0950
     16 C         140.0306  143.3279  169.2412 C.3     1  UNL1        0.0312
     17 C         141.2546  142.5513  169.6268 C.ar    1  UNL1       -0.0178
     18 C         142.5058  143.2742  170.0289 C.ar    1  UNL1       -0.0041
     19 C         143.7298  142.4976  170.4146 C.ar    1  UNL1       -0.0006
     20 C         143.7026  140.9980  170.3981 C.ar    1  UNL1       -0.0041
     21 C         142.4514  140.2750  169.9960 C.ar    1  UNL1       -0.0178
     22 C         142.4241  138.7753  169.9795 C.3     1  UNL1        0.0312
     23 C         141.2274  141.0516  169.6103 C.ar    1  UNL1        0.0457
     24 N         142.3400  139.0171  159.7051 N.pl3   1  UNL1       -0.3051
     25 C         141.7815  138.2693  158.5308 C.ar    1  UNL1        0.0480
     26 C         142.6710  137.3742  157.7198 C.ar    1  UNL1        0.0145
     27 C         142.1126  136.6265  156.5455 C.ar    1  UNL1        0.0013
     28 C         140.6647  136.7738  156.1822 C.ar    1  UNL1        0.0001
     29 C         139.7753  137.6689  156.9933 C.ar    1  UNL1        0.0013
     30 C         140.3337  138.4166  158.1675 C.ar    1  UNL1        0.0145
     31 C         143.6237  139.7806  159.5665 C.3     1  UNL1        0.1177
     32 C         144.0548  140.7256  160.6487 C.ar    1  UNL1       -0.0024
     33 C         143.9431  142.2068  160.4393 C.ar    1  UNL1       -0.0026
     34 C         144.3742  143.1517  161.5215 C.ar    1  UNL1       -0.0003
     35 C         144.9170  142.6157  162.8129 C.ar    1  UNL1       -0.0000
     36 C         145.0287  141.1346  163.0223 C.ar    1  UNL1       -0.0003
     37 C         144.5976  140.1895  161.9401 C.ar    1  UNL1       -0.0026
@<TRIPOS>BOND
     1    16    17    1
     2    17    18   ar
     3    18    19   ar
     4    19    20   ar
     5    20    21   ar
     6    21    22    1
     7    21    23   ar
     8    23     7    1
     9     7     8    2
    10     7     9   am
    11     9    10    1
    12    10    11    1
    13    11    12    1
    14    12    13    1
    15    12     1    1
    16     1     2    1
    17     2     3    1
    18     3     4    1
    19     4    24    1
    20    24    31    1
    21    31    32    1
    22    32    33   ar
    23    33    34   ar
    24    34    35   ar
    25    35    36   ar
    26    36    37   ar
    27    24    25    1
    28    25    26   ar
    29    26    27   ar
    30    27    28   ar
    31    28    29   ar
    32    29    30   ar
    33     4     5    1
    34     5     6    1
    35    12    14    1
    36    14    15    1
    37    23    17   ar
    38    15     9    1
    39     6     1    1
    40    37    32   ar
    41    30    25   ar
@<TRIPOS>MOLECULE
*****
 37 41 0 0 0
SMALL
GASTEIGER

@<TRIPOS>ATOM
      1 N         140.4957  143.6635  162.9175 N.3     1  UNL1       -0.2750
      2 C         141.7977  143.0683  163.3652 C.3     1  UNL1        0.0737
      3 C         141.8687  142.3021  164.6529 C.3     1  UNL1        0.0371
      4 C         140.6377  142.1312  165.4927 C.3     1  UNL1        0.0759
      5 C         139.3357  142.7264  165.0450 C.3     1  UNL1        0.0371
      6 C         139.2647  143.4926  163.7573 C.3     1  UNL1        0.0737
      7 C         139.9817  143.7095  157.2100 C.2     1  UNL1        0.2484
      8 O         139.9646  144.8694  156.2591 O.2     1  UNL1       -0.2699
      9 N         140.1293  143.9495  158.6832 N.am    1  UNL1       -0.2760
     10 C         140.1464  142.7895  159.6342 C.3     1  UNL1        0.0950
     11 C         140.2941  143.0296  161.1074 C.3     1  UNL1        0.0362
     12 C         140.4247  144.4297  161.6298 C.3     1  UNL1        0.0487
     13 C         140.5799  145.5636  162.5994 C.3     1  UNL1        0.0161
     14 C         140.4076  145.5896  160.6789 C.3     1  UNL1        0.0362
     15 C         140.2599  145.3495  159.2056 C.3     1  UNL1        0.0950
     16 C         142.4367  142.1382  156.5000 C.3     1  UNL1        0.0312
     17 C         141.0786  141.5238  156.3326 C.ar    1  UNL1       -0.0178
     18 C         140.9480  140.1238  155.8103 C.ar    1  UNL1       -0.0041
     19 C         139.5898  139.5094  155.6429 C.ar    1  UNL1       -0.0006
     20 C         138.3623  140.2950  155.9979 C.ar    1  UNL1       -0.0041
     21 C         138.4930  141.6950  156.5202 C.ar    1  UNL1       -0.0178
     22 C         137.2654  142.4806  156.8752 C.3     1  UNL1        0.0312
     23 C         139.8511  142.3094  156.6876 C.ar    1  UNL1        0.0457
     24 N         140.7087  141.3651  166.7804 N.pl3   1  UNL1       -0.3051
     25 C         141.3609  141.9791  167.9835 C.ar    1  UNL1        0.0480
     26 C         140.5877  142.9229  168.8561 C.ar    1  UNL1        0.0145
     27 C         141.2399  143.5368  170.0592 C.ar    1  UNL1        0.0013
     28 C         142.6654  143.2070  170.3898 C.ar    1  UNL1        0.0001
     29 C         143.4386  142.2632  169.5172 C.ar    1  UNL1        0.0013
     30 C         142.7864  141.6493  168.3140 C.ar    1  UNL1        0.0145
     31 C         140.1272  139.9849  166.8648 C.3     1  UNL1        0.1177
     32 C         140.1805  139.0745  165.6738 C.ar    1  UNL1       -0.0024
     33 C         138.9288  138.7720  164.9045 C.ar    1  UNL1       -0.0026
     34 C         138.9820  137.8617  163.7135 C.ar    1  UNL1       -0.0003
     35 C         140.2869  137.2539  163.2918 C.ar    1  UNL1       -0.0000
     36 C         141.5385  137.5564  164.0611 C.ar    1  UNL1       -0.0003
     37 C         141.4853  138.4667  165.2521 C.ar    1  UNL1       -0.0026
@<TRIPOS>BOND
     1    16    17    1
     2    17    18   ar
     3    18    19   ar
     4    19    20   ar
     5    20    21   ar
     6    21    22    1
     7    21    23   ar
     8    23     7    1
     9     7     8    2
    10     7     9   am
    11     9    10    1
    12    10    11    1
    13    11    12    1
    14    12    13    1
    15    12     1    1
    16     1     2    1
    17     2     3    1
    18     3     4    1
    19     4    24    1
    20    24    31    1
    21    31    32    1
    22    32    33   ar
    23    33    34   ar
    24    34    35   ar
    25    35    36   ar
    26    36    37   ar
    27    24    25    1
    28    25    26   ar
    29    26    27   ar
    30    27    28   ar
    31    28    29   ar
    32    29    30   ar
    33     4     5    1
    34     5     6    1
    35    12    14    1
    36    14    15    1
    37    23    17   ar
    38    15     9    1
    39     6     1    1
    40    37    32   ar
    41    30    25   ar
@<TRIPOS>MOLECULE
*****
 37 41 0 0 0
SMALL
GASTEIGER

@<TRIPOS>ATOM
      1 N         140.5108  143.6450  162.9409 N.3     1  UNL1       -0.2750
      2 C         139.3154  143.5675  163.8436 C.3     1  UNL1        0.0737
      3 C         139.3950  142.7989  165.1293 C.3     1  UNL1        0.0371
      4 C         140.6700  142.1079  165.5123 C.3     1  UNL1        0.0759
      5 C         141.8655  142.1854  164.6096 C.3     1  UNL1        0.0371
      6 C         141.7858  142.9540  163.3239 C.3     1  UNL1        0.0737
      7 C         139.9918  143.6998  157.2339 C.2     1  UNL1        0.2484
      8 O         139.9624  144.8619  156.2859 O.2     1  UNL1       -0.2699
      9 N         140.1383  143.9377  158.7077 N.am    1  UNL1       -0.2760
     10 C         140.1676  142.7756  159.6557 C.3     1  UNL1        0.0950
     11 C         140.3141  143.0135  161.1295 C.3     1  UNL1        0.0362
     12 C         140.4312  144.4136  161.6552 C.3     1  UNL1        0.0487
     13 C         140.5760  145.5466  162.6274 C.3     1  UNL1        0.0161
     14 C         140.4018  145.5756  160.7072 C.3     1  UNL1        0.0362
     15 C         140.2554  145.3377  159.2334 C.3     1  UNL1        0.0950
     16 C         137.2878  142.4436  156.9016 C.3     1  UNL1        0.0312
     17 C         138.5227  141.6717  156.5421 C.ar    1  UNL1       -0.0178
     18 C         138.4056  140.2718  156.0164 C.ar    1  UNL1       -0.0041
     19 C         139.6405  139.4999  155.6569 C.ar    1  UNL1       -0.0006
     20 C         140.9925  140.1280  155.8230 C.ar    1  UNL1       -0.0041
     21 C         141.1096  141.5279  156.3487 C.ar    1  UNL1       -0.0178
     22 C         142.4616  142.1561  156.5149 C.3     1  UNL1        0.0312
     23 C         139.8747  142.2998  156.7082 C.ar    1  UNL1        0.0457
     24 N         140.7497  141.3394  166.7979 N.pl3   1  UNL1       -0.3051
     25 C         141.3933  141.9583  168.0032 C.ar    1  UNL1        0.0480
     26 C         140.6131  142.9038  168.8677 C.ar    1  UNL1        0.0145
     27 C         141.2567  143.5228  170.0729 C.ar    1  UNL1        0.0013
     28 C         142.6806  143.1963  170.4136 C.ar    1  UNL1        0.0001
     29 C         143.4608  142.2508  169.5491 C.ar    1  UNL1        0.0013
     30 C         142.8172  141.6319  168.3439 C.ar    1  UNL1        0.0145
     31 C         140.1857  139.9517  166.8783 C.3     1  UNL1        0.1177
     32 C         140.1963  139.0666  165.6674 C.ar    1  UNL1       -0.0024
     33 C         141.4707  138.4050  165.2332 C.ar    1  UNL1       -0.0026
     34 C         141.4813  137.5199  164.0223 C.ar    1  UNL1       -0.0003
     35 C         140.2178  137.2963  163.2455 C.ar    1  UNL1       -0.0000
     36 C         138.9435  137.9578  163.6797 C.ar    1  UNL1       -0.0003
     37 C         138.9328  138.8430  164.8907 C.ar    1  UNL1       -0.0026
@<TRIPOS>BOND
     1    16    17    1
     2    17    18   ar
     3    18    19   ar
     4    19    20   ar
     5    20    21   ar
     6    21    22    1
     7    21    23   ar
     8    23     7    1
     9     7     8    2
    10     7     9   am
    11     9    10    1
    12    10    11    1
    13    11    12    1
    14    12    13    1
    15    12     1    1
    16     1     2    1
    17     2     3    1
    18     3     4    1
    19     4    24    1
    20    24    31    1
    21    31    32    1
    22    32    33   ar
    23    33    34   ar
    24    34    35   ar
    25    35    36   ar
    26    36    37   ar
    27    24    25    1
    28    25    26   ar
    29    26    27   ar
    30    27    28   ar
    31    28    29   ar
    32    29    30   ar
    33     4     5    1
    34     5     6    1
    35    12    14    1
    36    14    15    1
    37    23    17   ar
    38    15     9    1
    39     6     1    1
    40    37    32   ar
    41    30    25   ar
@<TRIPOS>MOLECULE
*****
 37 41 0 0 0
SMALL
GASTEIGER

@<TRIPOS>ATOM
      1 N         140.2914  138.7342  160.2140 N.3     1  UNL1       -0.2750
      2 C         141.7371  138.3759  160.0370 C.3     1  UNL1        0.0737
      3 C         142.2516  137.9801  158.6846 C.3     1  UNL1        0.0371
      4 C         141.3202  137.9426  157.5094 C.3     1  UNL1        0.0759
      5 C         139.8745  138.3009  157.6865 C.3     1  UNL1        0.0371
      6 C         139.3601  138.6967  159.0388 C.3     1  UNL1        0.0737
      7 C         140.5739  142.1447  164.8109 C.2     1  UNL1        0.2484
      8 O         139.7395  142.1432  166.0573 O.2     1  UNL1       -0.2699
      9 N         140.3083  141.1398  163.7294 N.am    1  UNL1       -0.2760
     10 C         141.1427  141.1412  162.4828 C.3     1  UNL1        0.0950
     11 C         140.8771  140.1364  161.4013 C.3     1  UNL1        0.0362
     12 C         139.7770  139.1300  161.5663 C.3     1  UNL1        0.0487
     13 C         138.8556  137.9862  161.2617 C.3     1  UNL1        0.0161
     14 C         138.9426  139.1286  162.8128 C.3     1  UNL1        0.0362
     15 C         139.2082  140.1335  163.8943 C.3     1  UNL1        0.0950
     16 C         139.9919  144.8135  163.5703 C.3     1  UNL1        0.0312
     17 C         141.3830  144.4853  164.0256 C.ar    1  UNL1       -0.0178
     18 C         142.4830  145.4916  163.8606 C.ar    1  UNL1       -0.0041
     19 C         143.8741  145.1635  164.3158 C.ar    1  UNL1       -0.0006
     20 C         144.1651  143.8291  164.9361 C.ar    1  UNL1       -0.0041
     21 C         143.0651  142.8229  165.1011 C.ar    1  UNL1       -0.0178
     22 C         143.3561  141.4884  165.7213 C.3     1  UNL1        0.0312
     23 C         141.6740  143.1510  164.6458 C.ar    1  UNL1        0.0457
     24 N         141.8346  137.5468  156.1571 N.pl3   1  UNL1       -0.3051
     25 C         142.7658  138.4572  155.4129 C.ar    1  UNL1        0.0480
     26 C         142.2210  139.6337  154.6586 C.ar    1  UNL1        0.0145
     27 C         143.1523  140.5441  153.9144 C.ar    1  UNL1        0.0013
     28 C         144.6285  140.2779  153.9245 C.ar    1  UNL1        0.0001
     29 C         145.1733  139.1014  154.6788 C.ar    1  UNL1        0.0013
     30 C         144.2420  138.1910  155.4229 C.ar    1  UNL1        0.0145
     31 C         141.4175  136.2405  155.5489 C.3     1  UNL1        0.1177
     32 C         142.0644  134.9638  155.9979 C.ar    1  UNL1       -0.0024
     33 C         141.5699  133.6480  155.4742 C.ar    1  UNL1       -0.0026
     34 C         142.2168  132.3713  155.9232 C.ar    1  UNL1       -0.0003
     35 C         143.3581  132.4103  156.8956 C.ar    1  UNL1       -0.0000
     36 C         143.8526  133.7261  157.4192 C.ar    1  UNL1       -0.0003
     37 C         143.2057  135.0029  156.9703 C.ar    1  UNL1       -0.0026
@<TRIPOS>BOND
     1    16    17    1
     2    17    18   ar
     3    18    19   ar
     4    19    20   ar
     5    20    21   ar
     6    21    22    1
     7    21    23   ar
     8    23     7    1
     9     7     8    2
    10     7     9   am
    11     9    10    1
    12    10    11    1
    13    11    12    1
    14    12    13    1
    15    12     1    1
    16     1     2    1
    17     2     3    1
    18     3     4    1
    19     4    24    1
    20    24    31    1
    21    31    32    1
    22    32    33   ar
    23    33    34   ar
    24    34    35   ar
    25    35    36   ar
    26    36    37   ar
    27    24    25    1
    28    25    26   ar
    29    26    27   ar
    30    27    28   ar
    31    28    29   ar
    32    29    30   ar
    33     4     5    1
    34     5     6    1
    35    12    14    1
    36    14    15    1
    37    23    17   ar
    38    15     9    1
    39     6     1    1
    40    37    32   ar
    41    30    25   ar
@<TRIPOS>MOLECULE
*****
 37 41 0 0 0
SMALL
GASTEIGER

@<TRIPOS>ATOM
      1 N         142.2494  143.1893  162.8980 N.3     1  UNL1       -0.2750
      2 C         142.6349  142.2748  161.7732 C.3     1  UNL1        0.0737
      3 C         141.7668  142.1784  160.5537 C.3     1  UNL1        0.0371
      4 C         140.5131  142.9965  160.4590 C.3     1  UNL1        0.0759
      5 C         140.1276  143.9110  161.5838 C.3     1  UNL1        0.0371
      6 C         140.9957  144.0073  162.8032 C.3     1  UNL1        0.0737
      7 C         143.0097  142.3182  168.5109 C.2     1  UNL1        0.2484
      8 O         144.1985  142.6196  169.3746 O.2     1  UNL1       -0.2699
      9 N         143.0457  142.6407  167.0464 N.am    1  UNL1       -0.2760
     10 C         141.8568  142.3393  166.1827 C.3     1  UNL1        0.0950
     11 C         141.8928  142.6617  164.7182 C.3     1  UNL1        0.0362
     12 C         143.1175  143.2856  164.1174 C.3     1  UNL1        0.0487
     13 C         144.0407  143.8760  163.0931 C.3     1  UNL1        0.0161
     14 C         144.3062  143.5870  164.9811 C.3     1  UNL1        0.0362
     15 C         144.2703  143.2645  166.4456 C.3     1  UNL1        0.0950
     16 C         140.8995  144.0509  169.7538 C.3     1  UNL1        0.0312
     17 C         140.7299  142.5607  169.7331 C.ar    1  UNL1       -0.0178
     18 C         139.5053  141.9368  170.3338 C.ar    1  UNL1       -0.0041
     19 C         139.3357  140.4465  170.3131 C.ar    1  UNL1       -0.0006
     20 C         140.3907  139.5802  169.6916 C.ar    1  UNL1       -0.0041
     21 C         141.6154  140.2041  169.0909 C.ar    1  UNL1       -0.0178
     22 C         142.6706  139.3377  168.4694 C.3     1  UNL1        0.0312
     23 C         141.7850  141.6943  169.1117 C.ar    1  UNL1        0.0457
     24 N         139.6450  142.9002  159.2396 N.pl3   1  UNL1       -0.3051
     25 C         139.8699  143.8290  158.0835 C.ar    1  UNL1        0.0480
     26 C         139.7645  143.3161  156.6778 C.ar    1  UNL1        0.0145
     27 C         139.9894  144.2449  155.5217 C.ar    1  UNL1        0.0013
     28 C         140.3197  145.6866  155.7712 C.ar    1  UNL1        0.0001
     29 C         140.4250  146.1996  157.1769 C.ar    1  UNL1        0.0013
     30 C         140.2001  145.2708  158.3330 C.ar    1  UNL1        0.0145
     31 C         138.5518  141.8749  159.1764 C.3     1  UNL1        0.1177
     32 C         138.5390  140.7315  160.1471 C.ar    1  UNL1       -0.0024
     33 C         137.9259  140.9072  161.5049 C.ar    1  UNL1       -0.0026
     34 C         137.9131  139.7638  162.4756 C.ar    1  UNL1       -0.0003
     35 C         138.5133  138.4447  162.0888 C.ar    1  UNL1       -0.0000
     36 C         139.1263  138.2690  160.7311 C.ar    1  UNL1       -0.0003
     37 C         139.1391  139.4124  159.7603 C.ar    1  UNL1       -0.0026
@<TRIPOS>BOND
     1    16    17    1
     2    17    18   ar
     3    18    19   ar
     4    19    20   ar
     5    20    21   ar
     6    21    22    1
     7    21    23   ar
     8    23     7    1
     9     7     8    2
    10     7     9   am
    11     9    10    1
    12    10    11    1
    13    11    12    1
    14    12    13    1
    15    12     1    1
    16     1     2    1
    17     2     3    1
    18     3     4    1
    19     4    24    1
    20    24    31    1
    21    31    32    1
    22    32    33   ar
    23    33    34   ar
    24    34    35   ar
    25    35    36   ar
    26    36    37   ar
    27    24    25    1
    28    25    26   ar
    29    26    27   ar
    30    27    28   ar
    31    28    29   ar
    32    29    30   ar
    33     4     5    1
    34     5     6    1
    35    12    14    1
    36    14    15    1
    37    23    17   ar
    38    15     9    1
    39     6     1    1
    40    37    32   ar
    41    30    25   ar
@<TRIPOS>MOLECULE
*****
 37 41 0 0 0
SMALL
GASTEIGER

@<TRIPOS>ATOM
      1 N         139.9399  144.3910  160.6415 N.3     1  UNL1       -0.2750
      2 C         140.6184  145.5030  159.8977 C.3     1  UNL1        0.0737
      3 C         140.6052  145.5195  158.3978 C.3     1  UNL1        0.0371
      4 C         139.9135  144.4242  157.6418 C.3     1  UNL1        0.0759
      5 C         139.2351  143.3122  158.3855 C.3     1  UNL1        0.0371
      6 C         139.2483  143.2956  159.8854 C.3     1  UNL1        0.0737
      7 C         140.4347  141.4794  165.5527 C.2     1  UNL1        0.2484
      8 O         140.3671  141.9705  166.9684 O.2     1  UNL1       -0.2699
      9 N         140.2742  142.4444  164.4156 N.am    1  UNL1       -0.2760
     10 C         140.3418  141.9532  162.9998 C.3     1  UNL1        0.0950
     11 C         140.1813  142.9182  161.8627 C.3     1  UNL1        0.0362
     12 C         139.9531  144.3744  162.1414 C.3     1  UNL1        0.0487
     13 C         139.7204  145.8363  161.8990 C.3     1  UNL1        0.0161
     14 C         139.8855  144.8655  163.5570 C.3     1  UNL1        0.0362
     15 C         140.0461  143.9005  164.6941 C.3     1  UNL1        0.0950
     16 C         138.1000  139.6055  165.3584 C.3     1  UNL1        0.0312
     17 C         139.4955  139.0863  165.1769 C.ar    1  UNL1       -0.0178
     18 C         139.7237  137.6303  164.8983 C.ar    1  UNL1       -0.0041
     19 C         141.1192  137.1111  164.7168 C.ar    1  UNL1       -0.0006
     20 C         142.2866  138.0479  164.8140 C.ar    1  UNL1       -0.0041
     21 C         142.0584  139.5040  165.0926 C.ar    1  UNL1       -0.0178
     22 C         143.2258  140.4410  165.1898 C.3     1  UNL1        0.0312
     23 C         140.6629  140.0232  165.2741 C.ar    1  UNL1        0.0457
     24 N         139.9003  144.4407  156.1419 N.pl3   1  UNL1       -0.3051
     25 C         138.8625  143.6589  155.3924 C.ar    1  UNL1        0.0480
     26 C         137.4910  144.2325  155.1922 C.ar    1  UNL1        0.0145
     27 C         136.4533  143.4507  154.4426 C.ar    1  UNL1        0.0013
     28 C         136.7870  142.0955  153.8932 C.ar    1  UNL1        0.0001
     29 C         138.1585  141.5220  154.0933 C.ar    1  UNL1        0.0013
     30 C         139.1963  142.3037  154.8429 C.ar    1  UNL1        0.0145
     31 C         140.9250  145.2390  155.3916 C.3     1  UNL1        0.1177
     32 C         140.5448  146.5484  154.7663 C.ar    1  UNL1       -0.0024
     33 C         139.6052  147.4752  155.4793 C.ar    1  UNL1       -0.0026
     34 C         139.2250  148.7845  154.8540 C.ar    1  UNL1       -0.0003
     35 C         139.7842  149.1671  153.5159 C.ar    1  UNL1       -0.0000
     36 C         140.7238  148.2404  152.8029 C.ar    1  UNL1       -0.0003
     37 C         141.1040  146.9310  153.4282 C.ar    1  UNL1       -0.0026
@<TRIPOS>BOND
     1    16    17    1
     2    17    18   ar
     3    18    19   ar
     4    19    20   ar
     5    20    21   ar
     6    21    22    1
     7    21    23   ar
     8    23     7    1
     9     7     8    2
    10     7     9   am
    11     9    10    1
    12    10    11    1
    13    11    12    1
    14    12    13    1
    15    12     1    1
    16     1     2    1
    17     2     3    1
    18     3     4    1
    19     4    24    1
    20    24    31    1
    21    31    32    1
    22    32    33   ar
    23    33    34   ar
    24    34    35   ar
    25    35    36   ar
    26    36    37   ar
    27    24    25    1
    28    25    26   ar
    29    26    27   ar
    30    27    28   ar
    31    28    29   ar
    32    29    30   ar
    33     4     5    1
    34     5     6    1
    35    12    14    1
    36    14    15    1
    37    23    17   ar
    38    15     9    1
    39     6     1    1
    40    37    32   ar
    41    30    25   ar
@<TRIPOS>MOLECULE
*****
 37 41 0 0 0
SMALL
GASTEIGER

@<TRIPOS>ATOM
      1 N         140.4930  138.6911  160.1948 N.3     1  UNL1       -0.2750
      2 C         141.9413  138.3112  160.1055 C.3     1  UNL1        0.0737
      3 C         142.5244  137.8814  158.7919 C.3     1  UNL1        0.0371
      4 C         141.6591  137.8316  157.5677 C.3     1  UNL1        0.0759
      5 C         140.2108  138.2115  157.6570 C.3     1  UNL1        0.0371
      6 C         139.6277  138.6412  158.9706 C.3     1  UNL1        0.0737
      7 C         140.5715  142.1862  164.7357 C.2     1  UNL1        0.2484
      8 O         139.6686  142.2214  165.9331 O.2     1  UNL1       -0.2699
      9 N         140.3510  141.1644  163.6599 N.am    1  UNL1       -0.2760
     10 C         141.2538  141.1291  162.4626 C.3     1  UNL1        0.0950
     11 C         141.0333  140.1073  161.3868 C.3     1  UNL1        0.0362
     12 C         139.9099  139.1208  161.5084 C.3     1  UNL1        0.0487
     13 C         138.9890  137.9849  161.1737 C.3     1  UNL1        0.0161
     14 C         139.0071  139.1560  162.7057 C.3     1  UNL1        0.0362
     15 C         139.2276  140.1778  163.7815 C.3     1  UNL1        0.0950
     16 C         143.3068  141.4763  165.7427 C.3     1  UNL1        0.0312
     17 C         143.0625  142.8178  165.1176 C.ar    1  UNL1       -0.0178
     18 C         144.1858  143.8044  164.9960 C.ar    1  UNL1       -0.0041
     19 C         143.9415  145.1459  164.3709 C.ar    1  UNL1       -0.0006
     20 C         142.5738  145.5008  163.8674 C.ar    1  UNL1       -0.0041
     21 C         141.4505  144.5142  163.9890 C.ar    1  UNL1       -0.0178
     22 C         140.0828  144.8691  163.4855 C.3     1  UNL1        0.0312
     23 C         141.6949  143.1727  164.6141 C.ar    1  UNL1        0.0457
     24 N         142.2420  137.4020  156.2541 N.pl3   1  UNL1       -0.3051
     25 C         142.3969  135.9427  155.9437 C.ar    1  UNL1        0.0480
     26 C         143.6802  135.2383  156.2709 C.ar    1  UNL1        0.0145
     27 C         143.8350  133.7790  155.9604 C.ar    1  UNL1        0.0013
     28 C         142.7065  133.0240  155.3228 C.ar    1  UNL1        0.0001
     29 C         141.4232  133.7284  154.9956 C.ar    1  UNL1        0.0013
     30 C         141.2684  135.1877  155.3061 C.ar    1  UNL1        0.0145
     31 C         142.6702  138.4317  155.2509 C.3     1  UNL1        0.1177
     32 C         143.2601  139.7306  155.7146 C.ar    1  UNL1       -0.0024
     33 C         142.3868  140.9418  155.8588 C.ar    1  UNL1       -0.0026
     34 C         142.9767  142.2406  156.3225 C.ar    1  UNL1       -0.0003
     35 C         144.4396  142.3284  156.6420 C.ar    1  UNL1       -0.0000
     36 C         145.3128  141.1173  156.4978 C.ar    1  UNL1       -0.0003
     37 C         144.7230  139.8184  156.0341 C.ar    1  UNL1       -0.0026
@<TRIPOS>BOND
     1    16    17    1
     2    17    18   ar
     3    18    19   ar
     4    19    20   ar
     5    20    21   ar
     6    21    22    1
     7    21    23   ar
     8    23     7    1
     9     7     8    2
    10     7     9   am
    11     9    10    1
    12    10    11    1
    13    11    12    1
    14    12    13    1
    15    12     1    1
    16     1     2    1
    17     2     3    1
    18     3     4    1
    19     4    24    1
    20    24    31    1
    21    31    32    1
    22    32    33   ar
    23    33    34   ar
    24    34    35   ar
    25    35    36   ar
    26    36    37   ar
    27    24    25    1
    28    25    26   ar
    29    26    27   ar
    30    27    28   ar
    31    28    29   ar
    32    29    30   ar
    33     4     5    1
    34     5     6    1
    35    12    14    1
    36    14    15    1
    37    23    17   ar
    38    15     9    1
    39     6     1    1
    40    37    32   ar
    41    30    25   ar
@<TRIPOS>MOLECULE
*****
 37 41 0 0 0
SMALL
GASTEIGER

@<TRIPOS>ATOM
      1 N         140.6484  141.3540  160.0509 N.3     1  UNL1       -0.2750
      2 C         141.7587  140.7856  160.8840 C.3     1  UNL1        0.0737
      3 C         141.5929  140.6598  162.3695 C.3     1  UNL1        0.0371
      4 C         140.3168  141.1023  163.0219 C.3     1  UNL1        0.0759
      5 C         139.2065  141.6707  162.1888 C.3     1  UNL1        0.0371
      6 C         139.3723  141.7965  160.7033 C.3     1  UNL1        0.0737
      7 C         141.8608  138.9588  154.9878 C.2     1  UNL1        0.2484
      8 O         141.8985  139.5755  153.6209 O.2     1  UNL1       -0.2699
      9 N         141.5119  139.7992  156.1803 N.am    1  UNL1       -0.2760
     10 C         141.4742  139.1825  157.5472 C.3     1  UNL1        0.0950
     11 C         141.1253  140.0228  158.7397 C.3     1  UNL1        0.0362
     12 C         140.8142  141.4798  158.5654 C.3     1  UNL1        0.0487
     13 C         140.4455  142.8931  158.9070 C.3     1  UNL1        0.0161
     14 C         140.8520  142.0965  157.1985 C.3     1  UNL1        0.0362
     15 C         141.2008  141.2561  156.0060 C.3     1  UNL1        0.0950
     16 C         144.7079  138.0560  155.2687 C.3     1  UNL1        0.0312
     17 C         143.5954  137.0504  155.3026 C.ar    1  UNL1       -0.0178
     18 C         143.9065  135.5935  155.4769 C.ar    1  UNL1       -0.0041
     19 C         142.7940  134.5879  155.5108 C.ar    1  UNL1       -0.0006
     20 C         141.3705  135.0392  155.3704 C.ar    1  UNL1       -0.0041
     21 C         141.0594  136.4962  155.1960 C.ar    1  UNL1       -0.0178
     22 C         139.6358  136.9477  155.0556 C.3     1  UNL1        0.0312
     23 C         142.1719  137.5018  155.1621 C.ar    1  UNL1        0.0457
     24 N         140.1510  140.9765  164.5073 N.pl3   1  UNL1       -0.3051
     25 C         139.4585  139.7784  165.0859 C.ar    1  UNL1        0.0480
     26 C         138.6065  139.9238  166.3119 C.ar    1  UNL1        0.0145
     27 C         137.9140  138.7257  166.8905 C.ar    1  UNL1        0.0013
     28 C         138.0735  137.3820  166.2432 C.ar    1  UNL1        0.0001
     29 C         138.9255  137.2365  165.0172 C.ar    1  UNL1        0.0013
     30 C         139.6180  138.4347  164.4386 C.ar    1  UNL1        0.0145
     31 C         140.6776  142.0491  165.4143 C.3     1  UNL1        0.1177
     32 C         141.6404  143.0712  164.8868 C.ar    1  UNL1       -0.0024
     33 C         141.1257  144.3336  164.2609 C.ar    1  UNL1       -0.0026
     34 C         142.0884  145.3557  163.7334 C.ar    1  UNL1       -0.0003
     35 C         143.5658  145.1156  163.8316 C.ar    1  UNL1       -0.0000
     36 C         144.0805  143.8533  164.4574 C.ar    1  UNL1       -0.0003
     37 C         143.1177  142.8311  164.9850 C.ar    1  UNL1       -0.0026
@<TRIPOS>BOND
     1    16    17    1
     2    17    18   ar
     3    18    19   ar
     4    19    20   ar
     5    20    21   ar
     6    21    22    1
     7    21    23   ar
     8    23     7    1
     9     7     8    2
    10     7     9   am
    11     9    10    1
    12    10    11    1
    13    11    12    1
    14    12    13    1
    15    12     1    1
    16     1     2    1
    17     2     3    1
    18     3     4    1
    19     4    24    1
    20    24    31    1
    21    31    32    1
    22    32    33   ar
    23    33    34   ar
    24    34    35   ar
    25    35    36   ar
    26    36    37   ar
    27    24    25    1
    28    25    26   ar
    29    26    27   ar
    30    27    28   ar
    31    28    29   ar
    32    29    30   ar
    33     4     5    1
    34     5     6    1
    35    12    14    1
    36    14    15    1
    37    23    17   ar
    38    15     9    1
    39     6     1    1
    40    37    32   ar
    41    30    25   ar
