@<TRIPOS>MOLECULE
*****
 28 30 0 0 0
SMALL
GASTEIGER

@<TRIPOS>ATOM
      1 C         143.7380  139.8541  163.0089 C.ar    1  UNL1        0.1889
      2 C         144.5403  139.2670  164.1321 C.ar    1  UNL1        0.1403
      3 N         143.9784  139.2431  165.5226 N.ar    1  UNL1       -0.2204
      4 C         142.6142  139.8064  165.7901 C.ar    1  UNL1        0.1816
      5 N         141.8118  140.3935  164.6669 N.ar    1  UNL1       -0.2074
      6 C         142.3737  140.4174  163.2764 C.ar    1  UNL1        0.1663
      7 C         142.0523  139.7825  167.1807 C.ar    1  UNL1        0.1170
      8 C         140.6391  140.2214  167.4262 C.ar    1  UNL1        0.0223
      9 C         140.0773  140.1975  168.8168 C.ar    1  UNL1        0.0032
     10 C         140.9285  139.7348  169.9618 C.ar    1  UNL1        0.0207
     11 C         142.3417  139.2959  169.7163 C.ar    1  UNL1        0.0989
     12 N         142.9036  139.3198  168.3257 N.ar    1  UNL1       -0.2407
     13 C         144.0081  138.7513  160.6721 C.3     1  UNL1        0.2527
     14 O         144.2999  139.8780  161.6184 O.3     1  UNL1       -0.4670
     15 N         141.5713  141.0045  162.1532 N.pl3   1  UNL1       -0.3119
     16 H         141.2278  140.4228  161.4371 H       1  UNL1        0.1486
     17 C         141.2923  142.4780  162.1212 C.3     1  UNL1        0.1154
     18 C         140.2193  143.0573  162.9947 C.ar    1  UNL1        0.0014
     19 C         138.8170  142.5316  162.9087 C.ar    1  UNL1       -0.0004
     20 C         137.7440  143.1109  163.7823 C.ar    1  UNL1        0.0294
     21 C         138.0733  144.2159  164.7418 C.ar    1  UNL1        0.1401
     22 F         137.0003  144.7951  165.6153 F       1  UNL1       -0.2042
     23 C         139.4755  144.7415  164.8278 C.ar    1  UNL1        0.0332
     24 C         140.5485  144.1622  163.9543 C.ar    1  UNL1        0.0713
     25 C         141.9507  144.6879  164.0403 C.3     1  UNL1        0.4184
     26 F         143.3530  145.2135  164.1263 F       1  UNL1       -0.1659
     27 F         141.5931  145.7966  163.0954 F       1  UNL1       -0.1659
     28 F         142.3084  143.5792  164.9852 F       1  UNL1       -0.1659
@<TRIPOS>BOND
     1    13    14    1
     2    14     1    1
     3     1     2   ar
     4     2     3   ar
     5     3     4   ar
     6     4     7    1
     7     7     8   ar
     8     8     9   ar
     9     9    10   ar
    10    10    11   ar
    11    11    12   ar
    12     4     5   ar
    13     5     6   ar
    14     6    15    1
    15    15    17    1
    16    17    18    1
    17    18    19   ar
    18    19    20   ar
    19    20    21   ar
    20    21    22    1
    21    21    23   ar
    22    23    24   ar
    23    24    25    1
    24    25    26    1
    25    25    27    1
    26    25    28    1
    27     6     1   ar
    28    24    18   ar
    29    12     7   ar
    30    15    16    1
@<TRIPOS>MOLECULE
*****
 28 30 0 0 0
SMALL
GASTEIGER

@<TRIPOS>ATOM
      1 C         142.7989  138.4454  163.4413 C.ar    1  UNL1        0.1889
      2 C         143.9323  139.3482  163.8288 C.ar    1  UNL1        0.1403
      3 N         143.9554  139.9819  165.1882 N.ar    1  UNL1       -0.2204
      4 C         142.8451  139.7127  166.1601 C.ar    1  UNL1        0.1816
      5 N         141.7117  138.8099  165.7726 N.ar    1  UNL1       -0.2074
      6 C         141.6886  138.1762  164.4133 C.ar    1  UNL1        0.1663
      7 C         142.8682  140.3464  167.5195 C.ar    1  UNL1        0.1170
      8 C         142.9519  141.8383  167.6502 C.ar    1  UNL1        0.0223
      9 C         142.9750  142.4720  169.0096 C.ar    1  UNL1        0.0032
     10 C         142.9143  141.6138  170.2382 C.ar    1  UNL1        0.0207
     11 C         142.8306  140.1218  170.1075 C.ar    1  UNL1        0.0989
     12 N         142.8075  139.4882  168.7482 N.ar    1  UNL1       -0.2407
     13 C         143.8444  138.1417  161.0824 C.3     1  UNL1        0.2527
     14 O         142.7758  137.8117  162.0820 O.3     1  UNL1       -0.4670
     15 N         140.5551  137.2733  164.0258 N.pl3   1  UNL1       -0.3119
     16 H         140.7394  136.4171  163.5760 H       1  UNL1        0.1486
     17 C         139.1409  137.6748  164.3238 C.3     1  UNL1        0.1154
     18 C         138.6485  139.0354  163.9289 C.ar    1  UNL1        0.0014
     19 C         138.4508  139.3702  162.4801 C.ar    1  UNL1       -0.0004
     20 C         137.9584  140.7309  162.0852 C.ar    1  UNL1        0.0294
     21 C         137.6636  141.7569  163.1390 C.ar    1  UNL1        0.1401
     22 F         137.1712  143.1176  162.7440 F       1  UNL1       -0.2042
     23 C         137.8613  141.4221  164.5877 C.ar    1  UNL1        0.0332
     24 C         138.3537  140.0615  164.9827 C.ar    1  UNL1        0.0713
     25 C         138.5513  139.7267  166.4314 C.3     1  UNL1        0.4184
     26 F         138.7490  139.3920  167.8802 F       1  UNL1       -0.1659
     27 F         137.4443  138.7179  166.3494 F       1  UNL1       -0.1659
     28 F         139.6584  140.7355  166.5135 F       1  UNL1       -0.1659
@<TRIPOS>BOND
     1    13    14    1
     2    14     1    1
     3     1     2   ar
     4     2     3   ar
     5     3     4   ar
     6     4     7    1
     7     7     8   ar
     8     8     9   ar
     9     9    10   ar
    10    10    11   ar
    11    11    12   ar
    12     4     5   ar
    13     5     6   ar
    14     6    15    1
    15    15    17    1
    16    17    18    1
    17    18    19   ar
    18    19    20   ar
    19    20    21   ar
    20    21    22    1
    21    21    23   ar
    22    23    24   ar
    23    24    25    1
    24    25    26    1
    25    25    27    1
    26    25    28    1
    27     6     1   ar
    28    24    18   ar
    29    12     7   ar
    30    15    16    1
@<TRIPOS>MOLECULE
*****
 28 30 0 0 0
SMALL
GASTEIGER

@<TRIPOS>ATOM
      1 C         143.6431  139.6371  164.0669 C.ar    1  UNL1        0.1889
      2 C         144.1463  141.0286  164.3124 C.ar    1  UNL1        0.1403
      3 N         143.6867  141.7903  165.5201 N.ar    1  UNL1       -0.2204
      4 C         142.7237  141.1605  166.4823 C.ar    1  UNL1        0.1816
      5 N         142.2205  139.7690  166.2369 N.ar    1  UNL1       -0.2074
      6 C         142.6801  139.0073  165.0292 C.ar    1  UNL1        0.1663
      7 C         142.2640  141.9222  167.6900 C.ar    1  UNL1        0.1170
      8 C         140.8725  142.4799  167.7402 C.ar    1  UNL1        0.0223
      9 C         140.4128  143.2416  168.9478 C.ar    1  UNL1        0.0032
     10 C         141.3447  143.4456  170.1054 C.ar    1  UNL1        0.0207
     11 C         142.7362  142.8879  170.0552 C.ar    1  UNL1        0.0989
     12 N         143.1959  142.1262  168.8476 N.ar    1  UNL1       -0.2407
     13 C         143.8915  139.4453  161.4879 C.3     1  UNL1        0.2527
     14 O         144.1027  138.8754  162.8593 O.3     1  UNL1       -0.4670
     15 N         142.1768  137.6156  164.7838 N.pl3   1  UNL1       -0.3119
     16 H         142.8144  136.8818  164.6286 H       1  UNL1        0.1486
     17 C         140.7020  137.3422  164.7750 C.3     1  UNL1        0.1154
     18 C         139.8171  138.0330  163.7802 C.ar    1  UNL1        0.0014
     19 C         139.9701  137.7483  162.3154 C.ar    1  UNL1       -0.0004
     20 C         139.0852  138.4391  161.3206 C.ar    1  UNL1        0.0294
     21 C         138.0472  139.4146  161.7905 C.ar    1  UNL1        0.1401
     22 F         137.1623  140.1054  160.7957 F       1  UNL1       -0.2042
     23 C         137.8941  139.6994  163.2552 C.ar    1  UNL1        0.0332
     24 C         138.7790  139.0086  164.2501 C.ar    1  UNL1        0.0713
     25 C         138.6259  139.2933  165.7148 C.3     1  UNL1        0.4184
     26 F         138.4728  139.5781  167.1796 F       1  UNL1       -0.1659
     27 F         139.3112  140.6147  165.5295 F       1  UNL1       -0.1659
     28 F         137.9406  137.9720  165.9001 F       1  UNL1       -0.1659
@<TRIPOS>BOND
     1    13    14    1
     2    14     1    1
     3     1     2   ar
     4     2     3   ar
     5     3     4   ar
     6     4     7    1
     7     7     8   ar
     8     8     9   ar
     9     9    10   ar
    10    10    11   ar
    11    11    12   ar
    12     4     5   ar
    13     5     6   ar
    14     6    15    1
    15    15    17    1
    16    17    18    1
    17    18    19   ar
    18    19    20   ar
    19    20    21   ar
    20    21    22    1
    21    21    23   ar
    22    23    24   ar
    23    24    25    1
    24    25    26    1
    25    25    27    1
    26    25    28    1
    27     6     1   ar
    28    24    18   ar
    29    12     7   ar
    30    15    16    1
@<TRIPOS>MOLECULE
*****
 28 30 0 0 0
SMALL
GASTEIGER

@<TRIPOS>ATOM
      1 C         139.6333  139.0237  164.7156 C.ar    1  UNL1        0.1889
      2 C         140.9134  138.5831  165.3613 C.ar    1  UNL1        0.1403
      3 N         141.5058  139.3890  166.4792 N.ar    1  UNL1       -0.2204
      4 C         140.8179  140.6355  166.9515 C.ar    1  UNL1        0.1816
      5 N         139.5377  141.0761  166.3058 N.ar    1  UNL1       -0.2074
      6 C         138.9454  140.2702  165.1879 C.ar    1  UNL1        0.1663
      7 C         141.4102  141.4414  168.0694 C.ar    1  UNL1        0.1170
      8 C         140.6255  142.5627  168.6831 C.ar    1  UNL1        0.0223
      9 C         141.2178  143.3686  169.8010 C.ar    1  UNL1        0.0032
     10 C         142.5948  143.0531  170.3052 C.ar    1  UNL1        0.0207
     11 C         143.3795  141.9318  169.6915 C.ar    1  UNL1        0.0989
     12 N         142.7872  141.1259  168.5735 N.ar    1  UNL1       -0.2407
     13 C         139.7926  138.0561  162.3098 C.3     1  UNL1        0.2527
     14 O         139.0410  138.2179  163.5977 O.3     1  UNL1       -0.4670
     15 N         137.6652  140.7109  164.5422 N.pl3   1  UNL1       -0.3119
     16 H         136.8016  140.4021  164.9001 H       1  UNL1        0.1486
     17 C         137.7008  141.6221  163.3511 C.3     1  UNL1        0.1154
     18 C         138.9463  142.3962  163.0360 C.ar    1  UNL1        0.0014
     19 C         139.9579  141.8335  162.0821 C.ar    1  UNL1       -0.0004
     20 C         141.2035  142.6077  161.7670 C.ar    1  UNL1        0.0294
     21 C         141.4374  143.9445  162.4058 C.ar    1  UNL1        0.1401
     22 F         142.6830  144.7186  162.0906 F       1  UNL1       -0.2042
     23 C         140.4258  144.5072  163.3597 C.ar    1  UNL1        0.0332
     24 C         139.1803  143.7331  163.6748 C.ar    1  UNL1        0.0713
     25 C         138.1687  144.2958  164.6287 C.3     1  UNL1        0.4184
     26 F         137.1571  144.8586  165.5827 F       1  UNL1       -0.1659
     27 F         139.1133  144.0597  165.7698 F       1  UNL1       -0.1659
     28 F         137.2241  144.5320  163.4877 F       1  UNL1       -0.1659
@<TRIPOS>BOND
     1    13    14    1
     2    14     1    1
     3     1     2   ar
     4     2     3   ar
     5     3     4   ar
     6     4     7    1
     7     7     8   ar
     8     8     9   ar
     9     9    10   ar
    10    10    11   ar
    11    11    12   ar
    12     4     5   ar
    13     5     6   ar
    14     6    15    1
    15    15    17    1
    16    17    18    1
    17    18    19   ar
    18    19    20   ar
    19    20    21   ar
    20    21    22    1
    21    21    23   ar
    22    23    24   ar
    23    24    25    1
    24    25    26    1
    25    25    27    1
    26    25    28    1
    27     6     1   ar
    28    24    18   ar
    29    12     7   ar
    30    15    16    1
@<TRIPOS>MOLECULE
*****
 28 30 0 0 0
SMALL
GASTEIGER

@<TRIPOS>ATOM
      1 C         138.5731  138.9342  163.6079 C.ar    1  UNL1        0.1889
      2 C         139.5007  138.1641  164.5002 C.ar    1  UNL1        0.1403
      3 N         139.8912  138.7220  165.8367 N.ar    1  UNL1       -0.2204
      4 C         139.3540  140.0502  166.2809 C.ar    1  UNL1        0.1816
      5 N         138.4264  140.8204  165.3886 N.ar    1  UNL1       -0.2074
      6 C         138.0359  140.2624  164.0521 C.ar    1  UNL1        0.1663
      7 C         139.7445  140.6082  167.6173 C.ar    1  UNL1        0.1170
      8 C         140.4212  141.9440  167.7037 C.ar    1  UNL1        0.0223
      9 C         140.8117  142.5020  169.0401 C.ar    1  UNL1        0.0032
     10 C         140.5255  141.7242  170.2903 C.ar    1  UNL1        0.0207
     11 C         139.8487  140.3883  170.2040 C.ar    1  UNL1        0.0989
     12 N         139.4583  139.8303  168.8675 N.ar    1  UNL1       -0.2407
     13 C         139.2346  138.0943  161.2400 C.3     1  UNL1        0.2527
     14 O         138.1826  138.3762  162.2714 O.3     1  UNL1       -0.4670
     15 N         137.1082  141.0327  163.1598 N.pl3   1  UNL1       -0.3119
     16 H         136.1412  140.8488  163.1789 H       1  UNL1        0.1486
     17 C         137.6538  142.0831  162.2384 C.3     1  UNL1        0.1154
     18 C         138.7416  143.0022  162.7095 C.ar    1  UNL1        0.0014
     19 C         138.4570  144.0150  163.7788 C.ar    1  UNL1       -0.0004
     20 C         139.5448  144.9342  164.2498 C.ar    1  UNL1        0.0294
     21 C         140.9171  144.8406  163.6516 C.ar    1  UNL1        0.1401
     22 F         142.0049  145.7597  164.1227 F       1  UNL1       -0.2042
     23 C         141.2017  143.8278  162.5824 C.ar    1  UNL1        0.0332
     24 C         140.1140  142.9087  162.1113 C.ar    1  UNL1        0.0713
     25 C         140.3986  141.8959  161.0420 C.3     1  UNL1        0.4184
     26 F         140.6832  140.8832  159.9728 F       1  UNL1       -0.1659
     27 F         140.8053  140.9033  162.0905 F       1  UNL1       -0.1659
     28 F         139.9919  142.8886  159.9936 F       1  UNL1       -0.1659
@<TRIPOS>BOND
     1    13    14    1
     2    14     1    1
     3     1     2   ar
     4     2     3   ar
     5     3     4   ar
     6     4     7    1
     7     7     8   ar
     8     8     9   ar
     9     9    10   ar
    10    10    11   ar
    11    11    12   ar
    12     4     5   ar
    13     5     6   ar
    14     6    15    1
    15    15    17    1
    16    17    18    1
    17    18    19   ar
    18    19    20   ar
    19    20    21   ar
    20    21    22    1
    21    21    23   ar
    22    23    24   ar
    23    24    25    1
    24    25    26    1
    25    25    27    1
    26    25    28    1
    27     6     1   ar
    28    24    18   ar
    29    12     7   ar
    30    15    16    1
@<TRIPOS>MOLECULE
*****
 28 30 0 0 0
SMALL
GASTEIGER

@<TRIPOS>ATOM
      1 C         143.3153  142.9809  163.0810 C.ar    1  UNL1        0.1889
      2 C         144.1391  143.6515  164.1400 C.ar    1  UNL1        0.1403
      3 N         144.0458  143.1930  165.5652 N.ar    1  UNL1       -0.2204
      4 C         143.1287  142.0640  165.9313 C.ar    1  UNL1        0.1816
      5 N         142.3049  141.3934  164.8723 N.ar    1  UNL1       -0.2074
      6 C         142.3982  141.8518  163.4471 C.ar    1  UNL1        0.1663
      7 C         143.0354  141.6056  167.3565 C.ar    1  UNL1        0.1170
      8 C         142.5321  140.2277  167.6697 C.ar    1  UNL1        0.0223
      9 C         142.4388  139.7693  169.0949 C.ar    1  UNL1        0.0032
     10 C         142.8488  140.6887  170.2069 C.ar    1  UNL1        0.0207
     11 C         143.3521  142.0665  169.8936 C.ar    1  UNL1        0.0989
     12 N         143.4454  142.5250  168.4685 N.ar    1  UNL1       -0.2407
     13 C         144.3659  142.7710  160.7141 C.3     1  UNL1        0.2527
     14 O         143.4086  143.4393  161.6558 O.3     1  UNL1       -0.4670
     15 N         141.5743  141.1811  162.3881 N.pl3   1  UNL1       -0.3119
     16 H         142.0059  140.8375  161.5727 H       1  UNL1        0.1486
     17 C         140.0928  141.0341  162.5715 C.3     1  UNL1        0.1154
     18 C         139.5547  140.0630  163.5801 C.ar    1  UNL1        0.0014
     19 C         139.9773  138.6244  163.5358 C.ar    1  UNL1       -0.0004
     20 C         139.4391  137.6533  164.5445 C.ar    1  UNL1        0.0294
     21 C         138.4784  138.1208  165.5974 C.ar    1  UNL1        0.1401
     22 F         137.9403  137.1497  166.6060 F       1  UNL1       -0.2042
     23 C         138.0559  139.5594  165.6416 C.ar    1  UNL1        0.0332
     24 C         138.5940  140.5304  164.6330 C.ar    1  UNL1        0.0713
     25 C         138.1715  141.9690  164.6772 C.3     1  UNL1        0.4184
     26 F         137.7489  143.4076  164.7214 F       1  UNL1       -0.1659
     27 F         137.0939  141.6834  163.6735 F       1  UNL1       -0.1659
     28 F         139.2490  142.2546  165.6809 F       1  UNL1       -0.1659
@<TRIPOS>BOND
     1    13    14    1
     2    14     1    1
     3     1     2   ar
     4     2     3   ar
     5     3     4   ar
     6     4     7    1
     7     7     8   ar
     8     8     9   ar
     9     9    10   ar
    10    10    11   ar
    11    11    12   ar
    12     4     5   ar
    13     5     6   ar
    14     6    15    1
    15    15    17    1
    16    17    18    1
    17    18    19   ar
    18    19    20   ar
    19    20    21   ar
    20    21    22    1
    21    21    23   ar
    22    23    24   ar
    23    24    25    1
    24    25    26    1
    25    25    27    1
    26    25    28    1
    27     6     1   ar
    28    24    18   ar
    29    12     7   ar
    30    15    16    1
@<TRIPOS>MOLECULE
*****
 28 30 0 0 0
SMALL
GASTEIGER

@<TRIPOS>ATOM
      1 C         138.4471  139.2068  163.5921 C.ar    1  UNL1        0.1889
      2 C         139.3491  138.1417  164.1417 C.ar    1  UNL1        0.1403
      3 N         140.0004  138.3277  165.4800 N.ar    1  UNL1       -0.2204
      4 C         139.7499  139.5786  166.2688 C.ar    1  UNL1        0.1816
      5 N         138.8479  140.6437  165.7192 N.ar    1  UNL1       -0.2074
      6 C         138.1966  140.4578  164.3809 C.ar    1  UNL1        0.1663
      7 C         140.4012  139.7646  167.6071 C.ar    1  UNL1        0.1170
      8 C         141.8960  139.8331  167.7107 C.ar    1  UNL1        0.0223
      9 C         142.5474  140.0190  169.0490 C.ar    1  UNL1        0.0032
     10 C         141.7039  140.1364  170.2838 C.ar    1  UNL1        0.0207
     11 C         140.2091  140.0679  170.1803 C.ar    1  UNL1        0.0989
     12 N         139.5577  139.8820  168.8419 N.ar    1  UNL1       -0.2407
     13 C         138.6267  138.6560  161.0594 C.3     1  UNL1        0.2527
     14 O         137.7958  139.0209  162.2537 O.3     1  UNL1       -0.4670
     15 N         137.2946  141.5230  163.8313 N.pl3   1  UNL1       -0.3119
     16 H         136.3267  141.4876  164.0077 H       1  UNL1        0.1486
     17 C         137.8674  142.6419  163.0129 C.3     1  UNL1        0.1154
     18 C         139.3537  142.8269  162.9314 C.ar    1  UNL1        0.0014
     19 C         140.1509  142.0576  161.9201 C.ar    1  UNL1       -0.0004
     20 C         141.6373  142.2426  161.8386 C.ar    1  UNL1        0.0294
     21 C         142.3264  143.1968  162.7684 C.ar    1  UNL1        0.1401
     22 F         143.8126  143.3817  162.6869 F       1  UNL1       -0.2042
     23 C         141.5292  143.9661  163.7797 C.ar    1  UNL1        0.0332
     24 C         140.0429  143.7811  163.8612 C.ar    1  UNL1        0.0713
     25 C         139.2457  144.5504  164.8725 C.3     1  UNL1        0.4184
     26 F         138.4485  145.3197  165.8838 F       1  UNL1       -0.1659
     27 F         138.8148  145.5099  163.8030 F       1  UNL1       -0.1659
     28 F         139.6765  143.5909  165.9420 F       1  UNL1       -0.1659
@<TRIPOS>BOND
     1    13    14    1
     2    14     1    1
     3     1     2   ar
     4     2     3   ar
     5     3     4   ar
     6     4     7    1
     7     7     8   ar
     8     8     9   ar
     9     9    10   ar
    10    10    11   ar
    11    11    12   ar
    12     4     5   ar
    13     5     6   ar
    14     6    15    1
    15    15    17    1
    16    17    18    1
    17    18    19   ar
    18    19    20   ar
    19    20    21   ar
    20    21    22    1
    21    21    23   ar
    22    23    24   ar
    23    24    25    1
    24    25    26    1
    25    25    27    1
    26    25    28    1
    27     6     1   ar
    28    24    18   ar
    29    12     7   ar
    30    15    16    1
@<TRIPOS>MOLECULE
*****
 28 30 0 0 0
SMALL
GASTEIGER

@<TRIPOS>ATOM
      1 C         138.6319  139.6681  164.2497 C.ar    1  UNL1        0.1889
      2 C         138.4053  138.7649  165.4256 C.ar    1  UNL1        0.1403
      3 N         138.8586  139.1851  166.7924 N.ar    1  UNL1       -0.2204
      4 C         139.5383  140.5085  166.9832 C.ar    1  UNL1        0.1816
      5 N         139.7648  141.4117  165.8073 N.ar    1  UNL1       -0.2074
      6 C         139.3116  140.9915  164.4406 C.ar    1  UNL1        0.1663
      7 C         139.9915  140.9287  168.3500 C.ar    1  UNL1        0.1170
      8 C         140.4451  142.3382  168.5894 C.ar    1  UNL1        0.0223
      9 C         140.8983  142.7584  169.9561 C.ar    1  UNL1        0.0032
     10 C         140.8980  141.7691  171.0835 C.ar    1  UNL1        0.0207
     11 C         140.4444  140.3595  170.8442 C.ar    1  UNL1        0.0989
     12 N         139.9912  139.9393  169.4774 N.ar    1  UNL1       -0.2407
     13 C         138.9377  138.1944  162.1320 C.3     1  UNL1        0.2527
     14 O         138.1786  139.2479  162.8830 O.3     1  UNL1       -0.4670
     15 N         139.5382  141.8948  163.2646 N.pl3   1  UNL1       -0.3119
     16 H         138.7858  142.3997  162.8796 H       1  UNL1        0.1486
     17 C         140.9111  142.0287  162.6753 C.3     1  UNL1        0.1154
     18 C         142.0371  142.5618  163.5107 C.ar    1  UNL1        0.0014
     19 C         142.9190  141.6168  164.2717 C.ar    1  UNL1       -0.0004
     20 C         144.0450  142.1499  165.1071 C.ar    1  UNL1        0.0294
     21 C         144.2892  143.6280  165.1815 C.ar    1  UNL1        0.1401
     22 F         145.4152  144.1611  166.0168 F       1  UNL1       -0.2042
     23 C         143.4072  144.5731  164.4204 C.ar    1  UNL1        0.0332
     24 C         142.2812  144.0400  163.5851 C.ar    1  UNL1        0.0713
     25 C         141.3993  144.9850  162.8240 C.3     1  UNL1        0.4184
     26 F         140.5174  145.9300  162.0630 F       1  UNL1       -0.1659
     27 F         142.2805  144.8370  161.6192 F       1  UNL1       -0.1659
     28 F         140.5182  145.1330  164.0289 F       1  UNL1       -0.1659
@<TRIPOS>BOND
     1    13    14    1
     2    14     1    1
     3     1     2   ar
     4     2     3   ar
     5     3     4   ar
     6     4     7    1
     7     7     8   ar
     8     8     9   ar
     9     9    10   ar
    10    10    11   ar
    11    11    12   ar
    12     4     5   ar
    13     5     6   ar
    14     6    15    1
    15    15    17    1
    16    17    18    1
    17    18    19   ar
    18    19    20   ar
    19    20    21   ar
    20    21    22    1
    21    21    23   ar
    22    23    24   ar
    23    24    25    1
    24    25    26    1
    25    25    27    1
    26    25    28    1
    27     6     1   ar
    28    24    18   ar
    29    12     7   ar
    30    15    16    1
@<TRIPOS>MOLECULE
*****
 28 30 0 0 0
SMALL
GASTEIGER

@<TRIPOS>ATOM
      1 C         138.0880  141.5520  163.9535 C.ar    1  UNL1        0.1889
      2 C         138.3289  140.0893  164.1829 C.ar    1  UNL1        0.1403
      3 N         139.1478  139.6390  165.3561 N.ar    1  UNL1       -0.2204
      4 C         139.7260  140.6513  166.3000 C.ar    1  UNL1        0.1816
      5 N         139.4851  142.1140  166.0706 N.ar    1  UNL1       -0.2074
      6 C         138.6662  142.5643  164.8974 C.ar    1  UNL1        0.1663
      7 C         140.5449  140.2010  167.4733 C.ar    1  UNL1        0.1170
      8 C         141.9403  139.6924  167.2629 C.ar    1  UNL1        0.0223
      9 C         142.7592  139.2420  168.4362 C.ar    1  UNL1        0.0032
     10 C         142.1828  139.3003  169.8197 C.ar    1  UNL1        0.0207
     11 C         140.7875  139.8089  170.0301 C.ar    1  UNL1        0.0989
     12 N         139.9685  140.2593  168.8568 N.ar    1  UNL1       -0.2407
     13 C         137.9419  142.3531  161.4864 C.3     1  UNL1        0.2527
     14 O         137.2691  142.0023  162.7803 O.3     1  UNL1       -0.4670
     15 N         138.4254  144.0270  164.6681 N.pl3   1  UNL1       -0.3119
     16 H         137.5113  144.3892  164.7181 H       1  UNL1        0.1486
     17 C         139.5773  144.9379  164.3624 C.3     1  UNL1        0.1154
     18 C         140.2118  144.9145  163.0035 C.ar    1  UNL1        0.0014
     19 C         139.5682  145.6453  161.8626 C.ar    1  UNL1       -0.0004
     20 C         140.2028  145.6220  160.5036 C.ar    1  UNL1        0.0294
     21 C         141.4809  144.8678  160.2855 C.ar    1  UNL1        0.1401
     22 F         142.1155  144.8445  158.9266 F       1  UNL1       -0.2042
     23 C         142.1245  144.1370  161.4264 C.ar    1  UNL1        0.0332
     24 C         141.4900  144.1603  162.7854 C.ar    1  UNL1        0.0713
     25 C         142.1336  143.4295  163.9263 C.3     1  UNL1        0.4184
     26 F         142.7772  142.6987  165.0672 F       1  UNL1       -0.1659
     27 F         142.8128  144.6964  164.3547 F       1  UNL1       -0.1659
     28 F         141.4544  142.1625  163.4979 F       1  UNL1       -0.1659
@<TRIPOS>BOND
     1    13    14    1
     2    14     1    1
     3     1     2   ar
     4     2     3   ar
     5     3     4   ar
     6     4     7    1
     7     7     8   ar
     8     8     9   ar
     9     9    10   ar
    10    10    11   ar
    11    11    12   ar
    12     4     5   ar
    13     5     6   ar
    14     6    15    1
    15    15    17    1
    16    17    18    1
    17    18    19   ar
    18    19    20   ar
    19    20    21   ar
    20    21    22    1
    21    21    23   ar
    22    23    24   ar
    23    24    25    1
    24    25    26    1
    25    25    27    1
    26    25    28    1
    27     6     1   ar
    28    24    18   ar
    29    12     7   ar
    30    15    16    1
