@<TRIPOS>MOLECULE
*****
 26 28 0 0 0
SMALL
GASTEIGER

@<TRIPOS>ATOM
      1 N         142.7644  143.5688  164.6462 N.pl3   1  UNL1       -0.1766
      2 C         141.4028  144.0197  164.2070 C.ar    1  UNL1        0.0853
      3 C         140.9448  144.8295  163.0304 C.ar    1  UNL1        0.0175
      4 C         139.4863  145.1284  162.8478 C.ar    1  UNL1        0.0014
      5 C         138.4858  144.6176  163.8419 C.ar    1  UNL1        0.0014
      6 C         138.9439  143.8079  165.0185 C.ar    1  UNL1        0.0179
      7 C         140.4024  143.5089  165.2011 C.ar    1  UNL1        0.0898
      8 N         141.1456  142.7423  166.2546 N.pl3   1  UNL1       -0.1555
      9 S         142.6054  142.7793  165.9117 S.O2    1  UNL1        0.1339
     10 O         144.0971  142.6454  165.8297 O.2     1  UNL1       -0.1342
     11 O         142.7583  141.9618  167.1600 O.2     1  UNL1       -0.1342
     12 C         140.5360  142.0587  167.4425 C.ar    1  UNL1        0.0750
     13 C         139.9762  140.6740  167.3055 C.ar    1  UNL1        0.0166
     14 C         139.3666  139.9904  168.4934 C.ar    1  UNL1        0.0013
     15 C         139.3168  140.6916  169.8184 C.ar    1  UNL1        0.0001
     16 C         139.8766  142.0764  169.9555 C.ar    1  UNL1        0.0013
     17 C         140.4862  142.7600  168.7676 C.ar    1  UNL1        0.0166
     18 C         144.0578  143.8568  163.9433 C.3     1  UNL1        0.1198
     19 C         144.3625  143.1946  162.6322 C.3     1  UNL1        0.0541
     20 C         145.1156  141.8977  162.6042 C.3     1  UNL1        0.1280
     21 O         146.5174  141.8327  163.1342 O.3     1  UNL1       -0.3830
     22 H         146.7828  142.7089  163.4547 H       1  UNL1        0.2104
     23 C         144.4669  140.6657  162.0462 C.3     1  UNL1        0.0982
     24 C         144.2845  139.2524  164.2186 C.3     1  UNL1        0.0859
     25 N         144.6123  139.3536  162.7583 N.3     1  UNL1       -0.2943
     26 H         144.0098  138.6877  162.2745 H       1  UNL1        0.1234
@<TRIPOS>BOND
     1    24    25    1
     2    25    23    1
     3    23    20    1
     4    20    21    1
     5    20    19    1
     6    19    18    1
     7    18     1    1
     8     1     2    1
     9     2     3   ar
    10     3     4   ar
    11     4     5   ar
    12     5     6   ar
    13     6     7   ar
    14     7     8    1
    15     8    12    1
    16    12    13   ar
    17    13    14   ar
    18    14    15   ar
    19    15    16   ar
    20    16    17   ar
    21     8     9    1
    22     9    10    2
    23     9    11    2
    24     9     1    1
    25     7     2   ar
    26    17    12   ar
    27    25    26    1
    28    21    22    1
@<TRIPOS>MOLECULE
*****
 26 28 0 0 0
SMALL
GASTEIGER

@<TRIPOS>ATOM
      1 N         140.2347  140.2889  167.6507 N.pl3   1  UNL1       -0.1766
      2 C         141.2989  141.0054  166.8734 C.ar    1  UNL1        0.0853
      3 C         142.5199  141.7619  167.3056 C.ar    1  UNL1        0.0175
      4 C         143.4184  142.3852  166.2790 C.ar    1  UNL1        0.0014
      5 C         143.0959  142.2521  164.8201 C.ar    1  UNL1        0.0014
      6 C         141.8749  141.4956  164.3879 C.ar    1  UNL1        0.0179
      7 C         140.9764  140.8723  165.4146 C.ar    1  UNL1        0.0898
      8 N         139.7129  140.0735  165.2902 N.pl3   1  UNL1       -0.1555
      9 S         139.2545  139.7129  166.6722 S.O2    1  UNL1        0.1339
     10 O         138.5608  139.2100  167.9034 O.2     1  UNL1       -0.1342
     11 O         138.1293  139.0318  165.9511 O.2     1  UNL1       -0.1342
     12 C         139.0281  139.7007  164.0088 C.ar    1  UNL1        0.0750
     13 C         138.1871  140.7109  163.2863 C.ar    1  UNL1        0.0166
     14 C         137.5023  140.3381  162.0049 C.ar    1  UNL1        0.0013
     15 C         137.6584  138.9550  161.4459 C.ar    1  UNL1        0.0001
     16 C         138.4994  137.9446  162.1684 C.ar    1  UNL1        0.0013
     17 C         139.1842  138.3174  163.4498 C.ar    1  UNL1        0.0166
     18 C         140.1632  140.1694  169.1442 C.3     1  UNL1        0.1198
     19 C         141.3333  139.6266  169.9100 C.3     1  UNL1        0.0541
     20 C         142.2112  140.5550  170.6957 C.3     1  UNL1        0.1280
     21 O         143.6564  140.2167  170.9126 O.3     1  UNL1       -0.3830
     22 H         143.8586  139.3711  170.4826 H       1  UNL1        0.2104
     23 C         141.6439  141.8217  171.2645 C.3     1  UNL1        0.0982
     24 C         140.6168  143.7643  169.8782 C.3     1  UNL1        0.0859
     25 N         141.8058  143.1154  170.5228 N.3     1  UNL1       -0.2943
     26 H         142.1855  143.7901  171.1869 H       1  UNL1        0.1234
@<TRIPOS>BOND
     1    24    25    1
     2    25    23    1
     3    23    20    1
     4    20    21    1
     5    20    19    1
     6    19    18    1
     7    18     1    1
     8     1     2    1
     9     2     3   ar
    10     3     4   ar
    11     4     5   ar
    12     5     6   ar
    13     6     7   ar
    14     7     8    1
    15     8    12    1
    16    12    13   ar
    17    13    14   ar
    18    14    15   ar
    19    15    16   ar
    20    16    17   ar
    21     8     9    1
    22     9    10    2
    23     9    11    2
    24     9     1    1
    25     7     2   ar
    26    17    12   ar
    27    25    26    1
    28    21    22    1
@<TRIPOS>MOLECULE
*****
 26 28 0 0 0
SMALL
GASTEIGER

@<TRIPOS>ATOM
      1 N         138.9336  140.3659  165.0463 N.pl3   1  UNL1       -0.1766
      2 C         138.7335  141.8068  164.6805 C.ar    1  UNL1        0.0853
      3 C         137.9521  142.4641  163.5817 C.ar    1  UNL1        0.0175
      4 C         137.9376  143.9593  163.4628 C.ar    1  UNL1        0.0014
      5 C         138.7044  144.7971  164.4427 C.ar    1  UNL1        0.0014
      6 C         139.4858  144.1398  165.5414 C.ar    1  UNL1        0.0179
      7 C         139.5003  142.6446  165.6603 C.ar    1  UNL1        0.0898
      8 N         140.1743  141.7215  166.6317 N.pl3   1  UNL1       -0.1555
      9 S         139.8241  140.3132  166.2523 S.O2    1  UNL1        0.1339
     10 O         139.6525  138.8290  166.1191 O.2     1  UNL1       -0.1342
     11 O         140.6787  139.9502  167.4304 O.2     1  UNL1       -0.1342
     12 C         141.0456  142.1343  167.7808 C.ar    1  UNL1        0.0750
     13 C         142.5339  141.9708  167.6902 C.ar    1  UNL1        0.0166
     14 C         143.4052  142.3836  168.8393 C.ar    1  UNL1        0.0013
     15 C         142.7881  142.9599  170.0791 C.ar    1  UNL1        0.0001
     16 C         141.2999  143.1234  170.1698 C.ar    1  UNL1        0.0013
     17 C         140.4286  142.7106  169.0207 C.ar    1  UNL1        0.0166
     18 C         138.3464  139.1850  164.3317 C.3     1  UNL1        0.1198
     19 C         138.4358  139.0923  162.8372 C.3     1  UNL1        0.0541
     20 C         139.3572  138.0938  162.2015 C.3     1  UNL1        0.1280
     21 O         139.0579  137.5637  160.8306 O.3     1  UNL1       -0.3830
     22 H         138.2394  137.9658  160.5000 H       1  UNL1        0.2104
     23 C         140.5777  137.6254  162.9368 C.3     1  UNL1        0.0982
     24 C         143.0508  138.0579  162.2683 C.3     1  UNL1        0.0859
     25 N         141.8059  137.2263  162.1737 N.3     1  UNL1       -0.2943
     26 H         142.0545  136.2876  162.4858 H       1  UNL1        0.1234
@<TRIPOS>BOND
     1    24    25    1
     2    25    23    1
     3    23    20    1
     4    20    21    1
     5    20    19    1
     6    19    18    1
     7    18     1    1
     8     1     2    1
     9     2     3   ar
    10     3     4   ar
    11     4     5   ar
    12     5     6   ar
    13     6     7   ar
    14     7     8    1
    15     8    12    1
    16    12    13   ar
    17    13    14   ar
    18    14    15   ar
    19    15    16   ar
    20    16    17   ar
    21     8     9    1
    22     9    10    2
    23     9    11    2
    24     9     1    1
    25     7     2   ar
    26    17    12   ar
    27    25    26    1
    28    21    22    1
@<TRIPOS>MOLECULE
*****
 26 28 0 0 0
SMALL
GASTEIGER

@<TRIPOS>ATOM
      1 N         140.9011  141.5172  163.5702 N.pl3   1  UNL1       -0.1766
      2 C         140.2463  140.1782  163.4017 C.ar    1  UNL1        0.0853
      3 C         139.7042  139.4708  162.1953 C.ar    1  UNL1        0.0175
      4 C         139.0928  138.1083  162.3365 C.ar    1  UNL1        0.0014
      5 C         139.0237  137.4533  163.6841 C.ar    1  UNL1        0.0014
      6 C         139.5659  138.1608  164.8906 C.ar    1  UNL1        0.0179
      7 C         140.1772  139.5232  164.7494 C.ar    1  UNL1        0.0898
      8 N         140.7892  140.4574  165.7507 N.pl3   1  UNL1       -0.1555
      9 S         141.2366  141.6898  165.0220 S.O2    1  UNL1        0.1339
     10 O         141.7778  143.0162  164.5772 O.2     1  UNL1       -0.1342
     11 O         141.6853  142.1396  166.3808 O.2     1  UNL1       -0.1342
     12 C         140.9292  140.2037  167.2225 C.ar    1  UNL1        0.0750
     13 C         142.2235  139.6837  167.7741 C.ar    1  UNL1        0.0166
     14 C         142.3635  139.4300  169.2459 C.ar    1  UNL1        0.0013
     15 C         141.2092  139.6964  170.1660 C.ar    1  UNL1        0.0001
     16 C         139.9149  140.2164  169.6144 C.ar    1  UNL1        0.0013
     17 C         139.7749  140.4701  168.1426 C.ar    1  UNL1        0.0166
     18 C         141.1726  142.5094  162.4785 C.3     1  UNL1        0.1198
     19 C         140.0498  142.9960  161.6109 C.3     1  UNL1        0.0541
     20 C         139.0462  143.9674  162.1578 C.3     1  UNL1        0.1280
     21 O         137.5796  143.6722  162.0479 O.3     1  UNL1       -0.3830
     22 H         137.4538  142.8207  161.6005 H       1  UNL1        0.2104
     23 C         139.5092  145.2340  162.8145 C.3     1  UNL1        0.0982
     24 C         138.7102  144.7479  165.2385 C.3     1  UNL1        0.0859
     25 N         139.7544  145.2653  164.2940 N.3     1  UNL1       -0.2943
     26 H         140.6005  144.7215  164.4638 H       1  UNL1        0.1234
@<TRIPOS>BOND
     1    24    25    1
     2    25    23    1
     3    23    20    1
     4    20    21    1
     5    20    19    1
     6    19    18    1
     7    18     1    1
     8     1     2    1
     9     2     3   ar
    10     3     4   ar
    11     4     5   ar
    12     5     6   ar
    13     6     7   ar
    14     7     8    1
    15     8    12    1
    16    12    13   ar
    17    13    14   ar
    18    14    15   ar
    19    15    16   ar
    20    16    17   ar
    21     8     9    1
    22     9    10    2
    23     9    11    2
    24     9     1    1
    25     7     2   ar
    26    17    12   ar
    27    25    26    1
    28    21    22    1
@<TRIPOS>MOLECULE
*****
 26 28 0 0 0
SMALL
GASTEIGER

@<TRIPOS>ATOM
      1 N         139.0938  142.5687  164.5069 N.pl3   1  UNL1       -0.1766
      2 C         138.8902  141.1697  164.0056 C.ar    1  UNL1        0.0853
      3 C         138.2922  140.6347  162.7383 C.ar    1  UNL1        0.0175
      4 C         138.2223  139.1540  162.5088 C.ar    1  UNL1        0.0014
      5 C         138.7505  138.2084  163.5465 C.ar    1  UNL1        0.0014
      6 C         139.3486  138.7434  164.8137 C.ar    1  UNL1        0.0179
      7 C         139.4184  140.2241  165.0433 C.ar    1  UNL1        0.0898
      8 N         139.9484  141.0387  166.1859 N.pl3   1  UNL1       -0.1555
      9 S         139.7478  142.4878  165.8544 S.O2    1  UNL1        0.1339
     10 O         139.6810  143.9854  165.8023 O.2     1  UNL1       -0.1342
     11 O         140.3878  142.7199  167.1910 O.2     1  UNL1       -0.1342
     12 C         140.5699  140.4990  167.4398 C.ar    1  UNL1        0.0750
     13 C         141.9927  140.0241  167.4275 C.ar    1  UNL1        0.0166
     14 C         142.6142  139.4844  168.6815 C.ar    1  UNL1        0.0013
     15 C         141.8129  139.4195  169.9478 C.ar    1  UNL1        0.0001
     16 C         140.3901  139.8944  169.9603 C.ar    1  UNL1        0.0013
     17 C         139.7686  140.4341  168.7063 C.ar    1  UNL1        0.0166
     18 C         138.7106  143.8277  163.7870 C.3     1  UNL1        0.1198
     19 C         139.4756  144.2587  162.5707 C.3     1  UNL1        0.0541
     20 C         140.4904  145.3585  162.6737 C.3     1  UNL1        0.1280
     21 O         140.1749  146.7228  162.1360 O.3     1  UNL1       -0.3830
     22 H         139.2814  146.7229  161.7584 H       1  UNL1        0.2104
     23 C         141.8206  145.0939  163.3142 C.3     1  UNL1        0.0982
     24 C         144.1402  144.1448  162.6294 C.3     1  UNL1        0.0859
     25 N         143.0776  145.1959  162.5021 N.3     1  UNL1       -0.2943
     26 H         142.7946  145.2113  161.5222 H       1  UNL1        0.1234
@<TRIPOS>BOND
     1    24    25    1
     2    25    23    1
     3    23    20    1
     4    20    21    1
     5    20    19    1
     6    19    18    1
     7    18     1    1
     8     1     2    1
     9     2     3   ar
    10     3     4   ar
    11     4     5   ar
    12     5     6   ar
    13     6     7   ar
    14     7     8    1
    15     8    12    1
    16    12    13   ar
    17    13    14   ar
    18    14    15   ar
    19    15    16   ar
    20    16    17   ar
    21     8     9    1
    22     9    10    2
    23     9    11    2
    24     9     1    1
    25     7     2   ar
    26    17    12   ar
    27    25    26    1
    28    21    22    1
@<TRIPOS>MOLECULE
*****
 26 28 0 0 0
SMALL
GASTEIGER

@<TRIPOS>ATOM
      1 N         142.2855  142.6864  164.6663 N.pl3   1  UNL1       -0.1766
      2 C         141.0423  143.3304  164.1278 C.ar    1  UNL1        0.0853
      3 C         140.8058  144.6512  163.4574 C.ar    1  UNL1        0.0175
      4 C         139.4233  145.0320  163.0174 C.ar    1  UNL1        0.0014
      5 C         138.2774  144.0920  163.2478 C.ar    1  UNL1        0.0014
      6 C         138.5139  142.7711  163.9181 C.ar    1  UNL1        0.0179
      7 C         139.8963  142.3903  164.3581 C.ar    1  UNL1        0.0898
      8 N         140.4312  141.1655  165.0390 N.pl3   1  UNL1       -0.1555
      9 S         141.9078  141.3485  165.2295 S.O2    1  UNL1        0.1339
     10 O         143.3693  141.2474  165.5518 O.2     1  UNL1       -0.1342
     11 O         141.8356  139.9893  165.8600 O.2     1  UNL1       -0.1342
     12 C         139.6302  139.9678  165.4562 C.ar    1  UNL1        0.0750
     13 C         139.6269  138.7337  164.6037 C.ar    1  UNL1        0.0166
     14 C         138.8258  137.5361  165.0209 C.ar    1  UNL1        0.0013
     15 C         138.0280  137.5726  166.2906 C.ar    1  UNL1        0.0001
     16 C         138.0312  138.8068  167.1431 C.ar    1  UNL1        0.0013
     17 C         138.8323  140.0044  166.7259 C.ar    1  UNL1        0.0166
     18 C         143.6642  143.2769  164.6454 C.3     1  UNL1        0.1198
     19 C         144.4185  143.3751  163.3524 C.3     1  UNL1        0.0541
     20 C         145.0887  142.1609  162.7810 C.3     1  UNL1        0.1280
     21 O         146.4859  141.8093  163.1982 O.3     1  UNL1       -0.3830
     22 H         146.8071  142.4646  163.8372 H       1  UNL1        0.2104
     23 C         144.3616  141.2984  161.7925 C.3     1  UNL1        0.0982
     24 C         144.0408  139.0157  162.9912 C.3     1  UNL1        0.0859
     25 N         144.5418  139.8095  161.8211 N.3     1  UNL1       -0.2943
     26 H         144.0743  139.4403  160.9931 H       1  UNL1        0.1234
@<TRIPOS>BOND
     1    24    25    1
     2    25    23    1
     3    23    20    1
     4    20    21    1
     5    20    19    1
     6    19    18    1
     7    18     1    1
     8     1     2    1
     9     2     3   ar
    10     3     4   ar
    11     4     5   ar
    12     5     6   ar
    13     6     7   ar
    14     7     8    1
    15     8    12    1
    16    12    13   ar
    17    13    14   ar
    18    14    15   ar
    19    15    16   ar
    20    16    17   ar
    21     8     9    1
    22     9    10    2
    23     9    11    2
    24     9     1    1
    25     7     2   ar
    26    17    12   ar
    27    25    26    1
    28    21    22    1
@<TRIPOS>MOLECULE
*****
 26 28 0 0 0
SMALL
GASTEIGER

@<TRIPOS>ATOM
      1 N         140.8851  141.7526  163.7839 N.pl3   1  UNL1       -0.1766
      2 C         140.0389  140.6624  164.3717 C.ar    1  UNL1        0.0853
      3 C         139.1420  139.6382  163.7421 C.ar    1  UNL1        0.0175
      4 C         138.4068  138.6544  164.6033 C.ar    1  UNL1        0.0014
      5 C         138.5686  138.6948  166.0940 C.ar    1  UNL1        0.0014
      6 C         139.4656  139.7190  166.7235 C.ar    1  UNL1        0.0179
      7 C         140.2007  140.7028  165.8624 C.ar    1  UNL1        0.0898
      8 N         141.1469  141.8180  166.1958 N.pl3   1  UNL1       -0.1555
      9 S         141.5699  142.4667  164.9113 S.O2    1  UNL1        0.1339
     10 O         142.1619  143.3013  163.8144 O.2     1  UNL1       -0.1342
     11 O         142.3785  143.3554  165.8094 O.2     1  UNL1       -0.1342
     12 C         141.5920  142.2147  167.5723 C.ar    1  UNL1        0.0750
     13 C         142.9630  141.8425  168.0536 C.ar    1  UNL1        0.0166
     14 C         143.4080  142.2392  169.4301 C.ar    1  UNL1        0.0013
     15 C         142.4820  143.0081  170.3252 C.ar    1  UNL1        0.0001
     16 C         141.1110  143.3803  169.8439 C.ar    1  UNL1        0.0013
     17 C         140.6659  142.9836  168.4675 C.ar    1  UNL1        0.0166
     18 C         141.0224  142.0724  162.3248 C.3     1  UNL1        0.1198
     19 C         139.8068  142.4102  161.5134 C.3     1  UNL1        0.0541
     20 C         138.8905  143.5113  161.9582 C.3     1  UNL1        0.1280
     21 O         137.4143  143.2644  162.0575 O.3     1  UNL1       -0.3830
     22 H         137.2216  142.3491  161.8008 H       1  UNL1        0.2104
     23 C         139.4504  144.8593  162.3036 C.3     1  UNL1        0.0982
     24 C         138.7872  144.8201  164.8154 C.3     1  UNL1        0.0859
     25 N         139.7522  145.2024  163.7323 N.3     1  UNL1       -0.2943
     26 H         140.6417  144.7582  163.9602 H       1  UNL1        0.1234
@<TRIPOS>BOND
     1    24    25    1
     2    25    23    1
     3    23    20    1
     4    20    21    1
     5    20    19    1
     6    19    18    1
     7    18     1    1
     8     1     2    1
     9     2     3   ar
    10     3     4   ar
    11     4     5   ar
    12     5     6   ar
    13     6     7   ar
    14     7     8    1
    15     8    12    1
    16    12    13   ar
    17    13    14   ar
    18    14    15   ar
    19    15    16   ar
    20    16    17   ar
    21     8     9    1
    22     9    10    2
    23     9    11    2
    24     9     1    1
    25     7     2   ar
    26    17    12   ar
    27    25    26    1
    28    21    22    1
@<TRIPOS>MOLECULE
*****
 26 28 0 0 0
SMALL
GASTEIGER

@<TRIPOS>ATOM
      1 N         143.4622  140.0286  164.2133 N.pl3   1  UNL1       -0.1766
      2 C         143.6755  141.4259  163.7114 C.ar    1  UNL1        0.0853
      3 C         144.1884  141.9560  162.4053 C.ar    1  UNL1        0.0175
      4 C         144.2934  143.4361  162.1860 C.ar    1  UNL1        0.0014
      5 C         143.8854  144.3862  163.2726 C.ar    1  UNL1        0.0014
      6 C         143.3725  143.8561  164.5787 C.ar    1  UNL1        0.0179
      7 C         143.2675  142.3760  164.7981 C.ar    1  UNL1        0.0898
      8 N         142.8021  141.5658  165.9715 N.pl3   1  UNL1       -0.1555
      9 S         142.9224  140.1150  165.6101 S.O2    1  UNL1        0.1339
     10 O         142.9303  138.6168  165.5375 O.2     1  UNL1       -0.1342
     11 O         142.3843  139.8882  166.9918 O.2     1  UNL1       -0.1342
     12 C         142.3038  142.1108  167.2772 C.ar    1  UNL1        0.0750
     13 C         140.8800  142.5646  167.4061 C.ar    1  UNL1        0.0166
     14 C         140.3817  143.1095  168.7118 C.ar    1  UNL1        0.0013
     15 C         141.3073  143.2007  169.8886 C.ar    1  UNL1        0.0001
     16 C         142.7312  142.7469  169.7597 C.ar    1  UNL1        0.0013
     17 C         143.2295  142.2019  168.4541 C.ar    1  UNL1        0.0166
     18 C         143.7400  138.7663  163.4519 C.3     1  UNL1        0.1198
     19 C         142.9750  138.4632  162.1976 C.3     1  UNL1        0.0541
     20 C         141.6116  137.8436  162.2819 C.3     1  UNL1        0.1280
     21 O         141.3407  136.7602  163.2833 O.3     1  UNL1       -0.3830
     22 H         142.1468  136.5815  163.7924 H       1  UNL1        0.2104
     23 C         140.5191  138.3074  161.3648 C.3     1  UNL1        0.0982
     24 C         137.9826  138.4989  161.8938 C.3     1  UNL1        0.0859
     25 N         139.1578  137.6824  161.4438 N.3     1  UNL1       -0.2943
     26 H         138.9369  137.3387  160.5092 H       1  UNL1        0.1234
@<TRIPOS>BOND
     1    24    25    1
     2    25    23    1
     3    23    20    1
     4    20    21    1
     5    20    19    1
     6    19    18    1
     7    18     1    1
     8     1     2    1
     9     2     3   ar
    10     3     4   ar
    11     4     5   ar
    12     5     6   ar
    13     6     7   ar
    14     7     8    1
    15     8    12    1
    16    12    13   ar
    17    13    14   ar
    18    14    15   ar
    19    15    16   ar
    20    16    17   ar
    21     8     9    1
    22     9    10    2
    23     9    11    2
    24     9     1    1
    25     7     2   ar
    26    17    12   ar
    27    25    26    1
    28    21    22    1
@<TRIPOS>MOLECULE
*****
 26 28 0 0 0
SMALL
GASTEIGER

@<TRIPOS>ATOM
      1 N         141.7018  141.1295  163.6157 N.pl3   1  UNL1       -0.1766
      2 C         140.3840  141.7868  163.3301 C.ar    1  UNL1        0.0853
      3 C         139.7266  142.2020  162.0475 C.ar    1  UNL1        0.0175
      4 C         138.3749  142.8518  162.0736 C.ar    1  UNL1        0.0014
      5 C         137.6807  143.0863  163.3824 C.ar    1  UNL1        0.0014
      6 C         138.3381  142.6710  164.6651 C.ar    1  UNL1        0.0179
      7 C         139.6898  142.0213  164.6390 C.ar    1  UNL1        0.0898
      8 N         140.5785  141.5089  165.7334 N.pl3   1  UNL1       -0.1555
      9 S         141.8220  140.9578  165.1010 S.O2    1  UNL1        0.1339
     10 O         143.1485  140.3439  164.7643 O.2     1  UNL1       -0.1342
     11 O         142.2194  140.6577  166.5159 O.2     1  UNL1       -0.1342
     12 C         140.2766  141.5420  167.2023 C.ar    1  UNL1        0.0750
     13 C         139.6460  140.3535  167.8654 C.ar    1  UNL1        0.0166
     14 C         139.3442  140.3865  169.3343 C.ar    1  UNL1        0.0013
     15 C         139.6730  141.6081  170.1403 C.ar    1  UNL1        0.0001
     16 C         140.3036  142.7967  169.4773 C.ar    1  UNL1        0.0013
     17 C         140.6054  142.7637  168.0083 C.ar    1  UNL1        0.0166
     18 C         142.7205  140.7165  162.5951 C.3     1  UNL1        0.1198
     19 C         143.3785  141.7510  161.7308 C.3     1  UNL1        0.0541
     20 C         144.4666  142.6167  162.2937 C.3     1  UNL1        0.1280
     21 O         145.8950  142.1640  162.2273 O.3     1  UNL1       -0.3830
     22 H         145.9398  141.2976  161.7933 H       1  UNL1        0.2104
     23 C         144.1260  143.9350  162.9230 C.3     1  UNL1        0.0982
     24 C         141.8491  145.1723  163.1106 C.3     1  UNL1        0.0859
     25 N         143.0663  144.8050  162.3145 N.3     1  UNL1       -0.2943
     26 H         143.5197  145.6794  162.0493 H       1  UNL1        0.1234
@<TRIPOS>BOND
     1    24    25    1
     2    25    23    1
     3    23    20    1
     4    20    21    1
     5    20    19    1
     6    19    18    1
     7    18     1    1
     8     1     2    1
     9     2     3   ar
    10     3     4   ar
    11     4     5   ar
    12     5     6   ar
    13     6     7   ar
    14     7     8    1
    15     8    12    1
    16    12    13   ar
    17    13    14   ar
    18    14    15   ar
    19    15    16   ar
    20    16    17   ar
    21     8     9    1
    22     9    10    2
    23     9    11    2
    24     9     1    1
    25     7     2   ar
    26    17    12   ar
    27    25    26    1
    28    21    22    1
