@<TRIPOS>MOLECULE
*****
 26 29 0 0 0
SMALL
GASTEIGER

@<TRIPOS>ATOM
      1 C         140.1043  140.3044  168.4257 C.3     1  UNL1        0.0559
      2 C         140.0071  140.3907  166.9313 C.3     1  UNL1        0.2097
      3 N         139.1692  139.5124  166.0501 N.pl3   1  UNL1       -0.2165
      4 C         139.3749  139.9493  164.6300 C.2     1  UNL1        0.3402
      5 N         140.3400  141.0975  164.6334 N.2     1  UNL1       -0.0595
      6 C         140.7307  141.3704  166.0557 C.3     1  UNL1        0.2515
      7 H         138.5865  138.7781  166.3510 H       1  UNL1        0.2923
      8 C         141.2975  141.8699  167.3516 C.ar    1  UNL1        0.0297
      9 C         140.5649  142.9173  168.1365 C.ar    1  UNL1        0.0025
     10 C         141.1317  143.4168  169.4323 C.ar    1  UNL1        0.0295
     11 C         142.4311  142.8688  169.9433 C.ar    1  UNL1        0.1401
     12 F         142.9979  143.3683  171.2392 F       1  UNL1       -0.2042
     13 C         143.1638  141.8213  169.1584 C.ar    1  UNL1        0.0295
     14 C         142.5970  141.3219  167.8626 C.ar    1  UNL1        0.0025
     15 C         141.5728  142.4545  165.4511 C.ar    1  UNL1        0.0488
     16 C         143.0680  142.3348  165.4585 C.ar    1  UNL1        0.0057
     17 C         143.9102  143.4189  164.8539 C.ar    1  UNL1        0.0495
     18 C         143.2571  144.6227  164.2418 C.ar    1  UNL1        0.2223
     19 F         144.0993  145.7067  163.6373 F       1  UNL1       -0.1832
     20 N         141.7619  144.7423  164.2344 N.ar    1  UNL1       -0.2166
     21 C         140.9197  143.6582  164.8391 C.ar    1  UNL1        0.1014
     22 C         138.7290  139.3441  163.4190 C.ar    1  UNL1        0.1927
     23 N         137.8601  140.0639  162.4307 N.ar    1  UNL1       -0.2297
     24 C         137.4326  139.0775  161.3846 C.ar    1  UNL1        0.1067
     25 C         138.0374  137.7481  161.7263 C.ar    1  UNL1        0.0577
     26 S         138.8386  137.9128  162.9837 S.2     1  UNL1       -0.0586
@<TRIPOS>BOND
     1     2     1    1
     2     2     3    1
     3     3     4    1
     4     4    22    1
     5    22    23   ar
     6    23    24   ar
     7    24    25   ar
     8    25    26   ar
     9     4     5    2
    10     5     6    1
    11     6     8    1
    12     8     9   ar
    13     9    10   ar
    14    10    11   ar
    15    11    12    1
    16    11    13   ar
    17    13    14   ar
    18     6    15    1
    19    15    16   ar
    20    16    17   ar
    21    17    18   ar
    22    18    19    1
    23    18    20   ar
    24    20    21   ar
    25     6     2    1
    26    14     8   ar
    27    21    15   ar
    28    26    22   ar
    29     3     7    1
@<TRIPOS>MOLECULE
*****
 26 29 0 0 0
SMALL
GASTEIGER

@<TRIPOS>ATOM
      1 C         142.4623  139.5964  168.1254 C.3     1  UNL1        0.0559
      2 C         142.2133  139.6592  166.6475 C.3     1  UNL1        0.2097
      3 N         142.8862  138.8183  165.6035 N.pl3   1  UNL1       -0.2165
      4 C         142.3364  139.2133  164.2650 C.2     1  UNL1        0.3402
      5 N         141.3237  140.2984  164.4817 N.2     1  UNL1       -0.0595
      6 C         141.2476  140.5740  165.9542 C.3     1  UNL1        0.2515
      7 H         143.5688  138.1282  165.7679 H       1  UNL1        0.2923
      8 C         140.9569  141.0623  167.3424 C.ar    1  UNL1        0.0297
      9 C         141.7783  142.1682  167.9359 C.ar    1  UNL1        0.0025
     10 C         141.4876  142.6564  169.3241 C.ar    1  UNL1        0.0295
     11 C         140.3755  142.0386  170.1188 C.ar    1  UNL1        0.1401
     12 F         140.0848  142.5268  171.5071 F       1  UNL1       -0.2042
     13 C         139.5541  140.9327  169.5254 C.ar    1  UNL1        0.0295
     14 C         139.8448  140.4445  168.1372 C.ar    1  UNL1        0.0025
     15 C         140.2212  141.5909  165.5511 C.ar    1  UNL1        0.0488
     16 C         140.5412  143.0539  165.6361 C.ar    1  UNL1        0.0057
     17 C         139.5148  144.0708  165.2331 C.ar    1  UNL1        0.0495
     18 C         138.1684  143.6247  164.7450 C.ar    1  UNL1        0.2223
     19 F         137.1420  144.6416  164.3420 F       1  UNL1       -0.1832
     20 N         137.8484  142.1617  164.6600 N.ar    1  UNL1       -0.2166
     21 C         138.8748  141.1447  165.0631 C.ar    1  UNL1        0.1014
     22 C         142.7302  138.6263  162.9420 C.ar    1  UNL1        0.1927
     23 N         144.1219  138.5588  162.3865 N.ar    1  UNL1       -0.2297
     24 C         144.0532  137.8945  161.0434 C.ar    1  UNL1        0.1067
     25 C         142.6190  137.5514  160.7687 C.ar    1  UNL1        0.0577
     26 S         141.8013  138.0037  161.9421 S.2     1  UNL1       -0.0586
@<TRIPOS>BOND
     1     2     1    1
     2     2     3    1
     3     3     4    1
     4     4    22    1
     5    22    23   ar
     6    23    24   ar
     7    24    25   ar
     8    25    26   ar
     9     4     5    2
    10     5     6    1
    11     6     8    1
    12     8     9   ar
    13     9    10   ar
    14    10    11   ar
    15    11    12    1
    16    11    13   ar
    17    13    14   ar
    18     6    15    1
    19    15    16   ar
    20    16    17   ar
    21    17    18   ar
    22    18    19    1
    23    18    20   ar
    24    20    21   ar
    25     6     2    1
    26    14     8   ar
    27    21    15   ar
    28    26    22   ar
    29     3     7    1
@<TRIPOS>MOLECULE
*****
 26 29 0 0 0
SMALL
GASTEIGER

@<TRIPOS>ATOM
      1 C         142.4584  139.5881  168.0917 C.3     1  UNL1        0.0559
      2 C         142.2203  139.6555  166.6122 C.3     1  UNL1        0.2097
      3 N         142.8916  138.8087  165.5718 N.pl3   1  UNL1       -0.2165
      4 C         142.3554  139.2113  164.2300 C.2     1  UNL1        0.3402
      5 N         141.3528  140.3069  164.4412 N.2     1  UNL1       -0.0595
      6 C         141.2693  140.5813  165.9135 C.3     1  UNL1        0.2515
      7 H         143.5657  138.1112  165.7400 H       1  UNL1        0.2923
      8 C         140.9741  141.0708  167.3003 C.ar    1  UNL1        0.0297
      9 C         139.8593  140.4541  168.0919 C.ar    1  UNL1        0.0025
     10 C         139.5641  140.9435  169.4787 C.ar    1  UNL1        0.0295
     11 C         140.3838  142.0498  170.0739 C.ar    1  UNL1        0.1401
     12 F         140.0886  142.5393  171.4608 F       1  UNL1       -0.2042
     13 C         141.4987  142.6666  169.2823 C.ar    1  UNL1        0.0295
     14 C         141.7938  142.1771  167.8955 C.ar    1  UNL1        0.0025
     15 C         140.2566  141.6096  165.5046 C.ar    1  UNL1        0.0488
     16 C         138.8953  141.1798  165.0442 C.ar    1  UNL1        0.0057
     17 C         137.8825  142.2080  164.6354 C.ar    1  UNL1        0.0495
     18 C         138.2311  143.6660  164.6870 C.ar    1  UNL1        0.2223
     19 F         137.2183  144.6942  164.2782 F       1  UNL1       -0.1832
     20 N         139.5924  144.0958  165.1474 N.ar    1  UNL1       -0.2166
     21 C         140.6052  143.0676  165.5562 C.ar    1  UNL1        0.1014
     22 C         142.7521  138.6219  162.9090 C.ar    1  UNL1        0.1927
     23 N         144.1474  138.5360  162.3653 N.ar    1  UNL1       -0.2297
     24 C         144.0809  137.8758  161.0200 C.ar    1  UNL1        0.1067
     25 C         142.6444  137.5537  160.7323 C.ar    1  UNL1        0.0577
     26 S         141.8232  138.0148  161.8997 S.2     1  UNL1       -0.0586
@<TRIPOS>BOND
     1     2     1    1
     2     2     3    1
     3     3     4    1
     4     4    22    1
     5    22    23   ar
     6    23    24   ar
     7    24    25   ar
     8    25    26   ar
     9     4     5    2
    10     5     6    1
    11     6     8    1
    12     8     9   ar
    13     9    10   ar
    14    10    11   ar
    15    11    12    1
    16    11    13   ar
    17    13    14   ar
    18     6    15    1
    19    15    16   ar
    20    16    17   ar
    21    17    18   ar
    22    18    19    1
    23    18    20   ar
    24    20    21   ar
    25     6     2    1
    26    14     8   ar
    27    21    15   ar
    28    26    22   ar
    29     3     7    1
@<TRIPOS>MOLECULE
*****
 26 29 0 0 0
SMALL
GASTEIGER

@<TRIPOS>ATOM
      1 C         140.8173  137.4727  164.7108 C.3     1  UNL1        0.0559
      2 C         140.7954  138.1012  163.3490 C.3     1  UNL1        0.2097
      3 N         141.3918  137.5214  162.1007 N.pl3   1  UNL1       -0.2165
      4 C         141.1382  138.4816  160.9766 C.2     1  UNL1        0.3402
      5 N         140.3851  139.6548  161.5301 N.2     1  UNL1       -0.0595
      6 C         140.1732  139.4197  162.9963 C.3     1  UNL1        0.2515
      7 H         141.8664  136.6616  162.0314 H       1  UNL1        0.2923
      8 C         139.8156  139.4621  164.4524 C.ar    1  UNL1        0.0297
      9 C         140.7853  140.0285  165.4467 C.ar    1  UNL1        0.0025
     10 C         140.4277  140.0709  166.9028 C.ar    1  UNL1        0.0295
     11 C         139.1002  139.5469  167.3646 C.ar    1  UNL1        0.1401
     12 F         138.7426  139.5893  168.8208 F       1  UNL1       -0.2042
     13 C         138.1304  138.9804  166.3703 C.ar    1  UNL1        0.0295
     14 C         138.4881  138.9380  164.9143 C.ar    1  UNL1        0.0025
     15 C         139.4763  140.7470  162.9480 C.ar    1  UNL1        0.0488
     16 C         140.2111  141.9946  163.3399 C.ar    1  UNL1        0.0057
     17 C         139.5142  143.3221  163.2916 C.ar    1  UNL1        0.0495
     18 C         138.0824  143.4019  162.8515 C.ar    1  UNL1        0.2223
     19 F         137.3855  144.7292  162.8033 F       1  UNL1       -0.1832
     20 N         137.3475  142.1543  162.4597 N.ar    1  UNL1       -0.2166
     21 C         138.0445  140.8269  162.5079 C.ar    1  UNL1        0.1014
     22 C         141.5632  138.3004  159.5495 C.ar    1  UNL1        0.1927
     23 N         142.9485  137.9726  159.0770 N.ar    1  UNL1       -0.2297
     24 C         142.9190  137.8848  157.5798 C.ar    1  UNL1        0.1067
     25 C         141.5153  138.1583  157.1271 C.ar    1  UNL1        0.0577
     26 S         140.6774  138.4152  158.3444 S.2     1  UNL1       -0.0586
@<TRIPOS>BOND
     1     2     1    1
     2     2     3    1
     3     3     4    1
     4     4    22    1
     5    22    23   ar
     6    23    24   ar
     7    24    25   ar
     8    25    26   ar
     9     4     5    2
    10     5     6    1
    11     6     8    1
    12     8     9   ar
    13     9    10   ar
    14    10    11   ar
    15    11    12    1
    16    11    13   ar
    17    13    14   ar
    18     6    15    1
    19    15    16   ar
    20    16    17   ar
    21    17    18   ar
    22    18    19    1
    23    18    20   ar
    24    20    21   ar
    25     6     2    1
    26    14     8   ar
    27    21    15   ar
    28    26    22   ar
    29     3     7    1
@<TRIPOS>MOLECULE
*****
 26 29 0 0 0
SMALL
GASTEIGER

@<TRIPOS>ATOM
      1 C         141.5903  145.3543  163.5338 C.3     1  UNL1        0.0559
      2 C         141.2333  144.8482  162.1675 C.3     1  UNL1        0.2097
      3 N         141.6027  145.4925  160.8643 N.pl3   1  UNL1       -0.2165
      4 C         141.0419  144.6515  159.7561 C.2     1  UNL1        0.3402
      5 N         140.3259  143.4874  160.3744 N.2     1  UNL1       -0.0595
      6 C         140.4441  143.6090  161.8647 C.3     1  UNL1        0.2515
      7 H         142.1221  146.3217  160.7554 H       1  UNL1        0.2923
      8 C         140.3953  143.4653  163.3571 C.ar    1  UNL1        0.0297
      9 C         139.3118  144.1447  164.1409 C.ar    1  UNL1        0.0025
     10 C         139.2630  144.0008  165.6332 C.ar    1  UNL1        0.0295
     11 C         140.2976  143.1776  166.3416 C.ar    1  UNL1        0.1401
     12 F         140.2487  143.0339  167.8340 F       1  UNL1       -0.2042
     13 C         141.3811  142.4982  165.5578 C.ar    1  UNL1        0.0295
     14 C         141.4299  142.6421  164.0655 C.ar    1  UNL1        0.0025
     15 C         139.6448  142.3398  161.8739 C.ar    1  UNL1        0.0488
     16 C         140.3373  141.0164  161.7364 C.ar    1  UNL1        0.0057
     17 C         139.5379  139.7471  161.7456 C.ar    1  UNL1        0.0495
     18 C         138.0461  139.8013  161.8923 C.ar    1  UNL1        0.2223
     19 F         137.2468  138.5321  161.9015 F       1  UNL1       -0.1832
     20 N         137.3536  141.1247  162.0299 N.ar    1  UNL1       -0.2166
     21 C         138.1529  142.3940  162.0207 C.ar    1  UNL1        0.1014
     22 C         141.1740  144.9262  158.2874 C.ar    1  UNL1        0.1927
     23 N         142.3490  145.5700  157.6130 N.ar    1  UNL1       -0.2297
     24 C         142.0554  145.6471  156.1441 C.ar    1  UNL1        0.1067
     25 C         140.6989  145.0510  155.9106 C.ar    1  UNL1        0.0577
     26 S         140.1541  144.6055  157.2352 S.2     1  UNL1       -0.0586
@<TRIPOS>BOND
     1     2     1    1
     2     2     3    1
     3     3     4    1
     4     4    22    1
     5    22    23   ar
     6    23    24   ar
     7    24    25   ar
     8    25    26   ar
     9     4     5    2
    10     5     6    1
    11     6     8    1
    12     8     9   ar
    13     9    10   ar
    14    10    11   ar
    15    11    12    1
    16    11    13   ar
    17    13    14   ar
    18     6    15    1
    19    15    16   ar
    20    16    17   ar
    21    17    18   ar
    22    18    19    1
    23    18    20   ar
    24    20    21   ar
    25     6     2    1
    26    14     8   ar
    27    21    15   ar
    28    26    22   ar
    29     3     7    1
@<TRIPOS>MOLECULE
*****
 26 29 0 0 0
SMALL
GASTEIGER

@<TRIPOS>ATOM
      1 C         142.1752  145.3019  163.7675 C.3     1  UNL1        0.0559
      2 C         142.0218  144.7310  162.3888 C.3     1  UNL1        0.2097
      3 N         141.5477  145.4736  161.1748 N.pl3   1  UNL1       -0.2165
      4 C         141.5485  144.5189  160.0179 C.2     1  UNL1        0.3402
      5 N         142.0231  143.1863  160.5168 N.2     1  UNL1       -0.0595
      6 C         142.3156  143.3174  161.9822 C.3     1  UNL1        0.2515
      7 H         141.2825  146.4212  161.1430 H       1  UNL1        0.2923
      8 C         142.6858  143.1455  163.4256 C.ar    1  UNL1        0.0297
      9 C         141.6731  142.6266  164.4029 C.ar    1  UNL1        0.0025
     10 C         142.0433  142.4547  165.8463 C.ar    1  UNL1        0.0295
     11 C         143.4262  142.8016  166.3124 C.ar    1  UNL1        0.1401
     12 F         143.7963  142.6296  167.7558 F       1  UNL1       -0.2042
     13 C         144.4389  143.3204  165.3351 C.ar    1  UNL1        0.0295
     14 C         144.0687  143.4923  163.8917 C.ar    1  UNL1        0.0025
     15 C         142.6868  141.8679  161.8773 C.ar    1  UNL1        0.0488
     16 C         141.6173  140.8164  161.8980 C.ar    1  UNL1        0.0057
     17 C         141.9885  139.3668  161.7931 C.ar    1  UNL1        0.0495
     18 C         143.4292  138.9687  161.6675 C.ar    1  UNL1        0.2223
     19 F         143.8003  137.5192  161.5626 F       1  UNL1       -0.1832
     20 N         144.4988  140.0202  161.6469 N.ar    1  UNL1       -0.2166
     21 C         144.1276  141.4698  161.7517 C.ar    1  UNL1        0.1014
     22 C         141.1455  144.8403  158.6093 C.ar    1  UNL1        0.1927
     23 N         139.9114  144.3501  157.9117 N.ar    1  UNL1       -0.2297
     24 C         139.9089  144.9153  156.5222 C.ar    1  UNL1        0.1067
     25 C         141.1415  145.7548  156.3611 C.ar    1  UNL1        0.0577
     26 S         141.9057  145.7085  157.6510 S.2     1  UNL1       -0.0586
@<TRIPOS>BOND
     1     2     1    1
     2     2     3    1
     3     3     4    1
     4     4    22    1
     5    22    23   ar
     6    23    24   ar
     7    24    25   ar
     8    25    26   ar
     9     4     5    2
    10     5     6    1
    11     6     8    1
    12     8     9   ar
    13     9    10   ar
    14    10    11   ar
    15    11    12    1
    16    11    13   ar
    17    13    14   ar
    18     6    15    1
    19    15    16   ar
    20    16    17   ar
    21    17    18   ar
    22    18    19    1
    23    18    20   ar
    24    20    21   ar
    25     6     2    1
    26    14     8   ar
    27    21    15   ar
    28    26    22   ar
    29     3     7    1
@<TRIPOS>MOLECULE
*****
 26 29 0 0 0
SMALL
GASTEIGER

@<TRIPOS>ATOM
      1 C         139.0756  139.8779  168.1053 C.3     1  UNL1        0.0559
      2 C         139.3024  139.9378  166.6237 C.3     1  UNL1        0.2097
      3 N         138.3331  139.5024  165.5650 N.pl3   1  UNL1       -0.2165
      4 C         138.9700  139.7392  164.2277 C.2     1  UNL1        0.3402
      5 N         140.3330  140.3209  164.4599 N.2     1  UNL1       -0.0595
      6 C         140.5384  140.4437  165.9407 C.3     1  UNL1        0.2515
      7 H         137.4363  139.1272  165.7205 H       1  UNL1        0.2923
      8 C         141.0235  140.6826  167.3399 C.ar    1  UNL1        0.0297
      9 C         141.9039  139.6709  168.0115 C.ar    1  UNL1        0.0025
     10 C         142.3890  139.9098  169.4107 C.ar    1  UNL1        0.0295
     11 C         141.9936  141.1606  170.1382 C.ar    1  UNL1        0.1401
     12 F         142.4786  141.3996  171.5374 F       1  UNL1       -0.2042
     13 C         141.1131  142.1724  169.4665 C.ar    1  UNL1        0.0295
     14 C         140.6281  141.9334  168.0674 C.ar    1  UNL1        0.0025
     15 C         141.8758  140.9995  165.5503 C.ar    1  UNL1        0.0488
     16 C         142.1427  142.4701  165.6767 C.ar    1  UNL1        0.0057
     17 C         143.4801  143.0260  165.2863 C.ar    1  UNL1        0.0495
     18 C         144.5507  142.1112  164.7695 C.ar    1  UNL1        0.2223
     19 F         145.8880  142.6671  164.3791 F       1  UNL1       -0.1832
     20 N         144.2838  140.6406  164.6431 N.ar    1  UNL1       -0.2166
     21 C         142.9464  140.0847  165.0335 C.ar    1  UNL1        0.1014
     22 C         138.3524  139.4458  162.8927 C.ar    1  UNL1        0.1927
     23 N         138.0820  138.0833  162.3266 N.ar    1  UNL1       -0.2297
     24 C         137.4593  138.2588  160.9733 C.ar    1  UNL1        0.1067
     25 C         137.3448  139.7298  160.7030 C.ar    1  UNL1        0.0577
     26 S         137.8968  140.4634  161.8892 S.2     1  UNL1       -0.0586
@<TRIPOS>BOND
     1     2     1    1
     2     2     3    1
     3     3     4    1
     4     4    22    1
     5    22    23   ar
     6    23    24   ar
     7    24    25   ar
     8    25    26   ar
     9     4     5    2
    10     5     6    1
    11     6     8    1
    12     8     9   ar
    13     9    10   ar
    14    10    11   ar
    15    11    12    1
    16    11    13   ar
    17    13    14   ar
    18     6    15    1
    19    15    16   ar
    20    16    17   ar
    21    17    18   ar
    22    18    19    1
    23    18    20   ar
    24    20    21   ar
    25     6     2    1
    26    14     8   ar
    27    21    15   ar
    28    26    22   ar
    29     3     7    1
@<TRIPOS>MOLECULE
*****
 26 29 0 0 0
SMALL
GASTEIGER

@<TRIPOS>ATOM
      1 C         141.4769  138.0446  164.7846 C.3     1  UNL1        0.0559
      2 C         141.3806  139.2871  165.6194 C.3     1  UNL1        0.2097
      3 N         142.0116  139.4971  166.9640 N.pl3   1  UNL1       -0.2165
      4 C         141.6574  140.8776  167.4317 C.2     1  UNL1        0.3402
      5 N         140.8075  141.5208  166.3763 N.2     1  UNL1       -0.0595
      6 C         140.6364  140.5378  165.2562 C.3     1  UNL1        0.2515
      7 H         142.5617  138.8436  167.4535 H       1  UNL1        0.2923
      8 C         140.2948  139.7834  164.0055 C.ar    1  UNL1        0.0297
      9 C         139.1133  138.8595  163.9860 C.ar    1  UNL1        0.0025
     10 C         138.7718  138.1051  162.7353 C.ar    1  UNL1        0.0295
     11 C         139.6118  138.2746  161.5042 C.ar    1  UNL1        0.1401
     12 F         139.2702  137.5202  160.2535 F       1  UNL1       -0.2042
     13 C         140.7933  139.1985  161.5237 C.ar    1  UNL1        0.0295
     14 C         141.1348  139.9529  162.7744 C.ar    1  UNL1        0.0025
     15 C         139.8209  141.6308  164.6316 C.ar    1  UNL1        0.0488
     16 C         138.3228  141.5659  164.6730 C.ar    1  UNL1        0.0057
     17 C         137.5072  142.6589  164.0483 C.ar    1  UNL1        0.0495
     18 C         138.1896  143.8168  163.3822 C.ar    1  UNL1        0.2223
     19 F         137.3740  144.9097  162.7576 F       1  UNL1       -0.1832
     20 N         139.6876  143.8817  163.3409 N.ar    1  UNL1       -0.2166
     21 C         140.5033  142.7887  163.9655 C.ar    1  UNL1        0.1014
     22 C         142.0791  141.5047  168.7274 C.ar    1  UNL1        0.1927
     23 N         143.1794  142.5087  168.9041 N.ar    1  UNL1       -0.2297
     24 C         143.2548  142.8625  170.3598 C.ar    1  UNL1        0.1067
     25 C         142.2011  142.0771  171.0829 C.ar    1  UNL1        0.0577
     26 S         141.4744  141.2379  170.0740 S.2     1  UNL1       -0.0586
@<TRIPOS>BOND
     1     2     1    1
     2     2     3    1
     3     3     4    1
     4     4    22    1
     5    22    23   ar
     6    23    24   ar
     7    24    25   ar
     8    25    26   ar
     9     4     5    2
    10     5     6    1
    11     6     8    1
    12     8     9   ar
    13     9    10   ar
    14    10    11   ar
    15    11    12    1
    16    11    13   ar
    17    13    14   ar
    18     6    15    1
    19    15    16   ar
    20    16    17   ar
    21    17    18   ar
    22    18    19    1
    23    18    20   ar
    24    20    21   ar
    25     6     2    1
    26    14     8   ar
    27    21    15   ar
    28    26    22   ar
    29     3     7    1
@<TRIPOS>MOLECULE
*****
 26 29 0 0 0
SMALL
GASTEIGER

@<TRIPOS>ATOM
      1 C         137.5953  140.7145  163.0752 C.3     1  UNL1        0.0559
      2 C         138.7998  141.3310  162.4277 C.3     1  UNL1        0.2097
      3 N         138.7845  142.3630  161.3392 N.pl3   1  UNL1       -0.2165
      4 C         140.2062  142.6936  160.9939 C.2     1  UNL1        0.3402
      5 N         141.1003  141.8659  161.8688 N.2     1  UNL1       -0.0595
      6 C         140.2310  141.0238  162.7550 C.3     1  UNL1        0.2515
      7 H         137.9821  142.7546  160.9243 H       1  UNL1        0.2923
      8 C         139.6350  140.0760  163.7533 C.ar    1  UNL1        0.0297
      9 C         139.4508  138.6305  163.3978 C.ar    1  UNL1        0.0025
     10 C         138.8548  137.6828  164.3961 C.ar    1  UNL1        0.0295
     11 C         138.4430  138.1806  165.7498 C.ar    1  UNL1        0.1401
     12 F         137.8469  137.2328  166.7481 F       1  UNL1       -0.2042
     13 C         138.6272  139.6262  166.1053 C.ar    1  UNL1        0.0295
     14 C         139.2232  140.5739  165.1070 C.ar    1  UNL1        0.0025
     15 C         141.5377  140.5184  163.2910 C.ar    1  UNL1        0.0488
     16 C         142.1225  141.1222  164.5334 C.ar    1  UNL1        0.0057
     17 C         143.4292  140.6169  165.0695 C.ar    1  UNL1        0.0495
     18 C         144.1510  139.5077  164.3632 C.ar    1  UNL1        0.2223
     19 F         145.4575  139.0024  164.8992 F       1  UNL1       -0.1832
     20 N         143.5661  138.9040  163.1208 N.ar    1  UNL1       -0.2166
     21 C         142.2595  139.4093  162.5847 C.ar    1  UNL1        0.1014
     22 C         140.6551  143.6788  159.9557 C.ar    1  UNL1        0.1927
     23 N         139.9362  144.9355  159.5636 N.ar    1  UNL1       -0.2297
     24 C         140.7385  145.6137  158.4929 C.ar    1  UNL1        0.1067
     25 C         141.9534  144.7762  158.2234 C.ar    1  UNL1        0.0577
     26 S         141.9019  143.5804  159.1274 S.2     1  UNL1       -0.0586
@<TRIPOS>BOND
     1     2     1    1
     2     2     3    1
     3     3     4    1
     4     4    22    1
     5    22    23   ar
     6    23    24   ar
     7    24    25   ar
     8    25    26   ar
     9     4     5    2
    10     5     6    1
    11     6     8    1
    12     8     9   ar
    13     9    10   ar
    14    10    11   ar
    15    11    12    1
    16    11    13   ar
    17    13    14   ar
    18     6    15    1
    19    15    16   ar
    20    16    17   ar
    21    17    18   ar
    22    18    19    1
    23    18    20   ar
    24    20    21   ar
    25     6     2    1
    26    14     8   ar
    27    21    15   ar
    28    26    22   ar
    29     3     7    1
