@<TRIPOS>MOLECULE
*****
 30 32 0 0 0
SMALL
GASTEIGER

@<TRIPOS>ATOM
      1 C         138.9285  139.8392  167.4287 C.2     1  UNL1        0.4125
      2 O         138.8853  139.4304  168.8713 O.2     1  UNL1       -0.2255
      3 N         139.8884  140.9002  166.9782 N.am    1  UNL1       -0.2037
      4 C         139.9316  141.3090  165.5357 C.ar    1  UNL1        0.0635
      5 C         141.1806  141.0960  164.7328 C.ar    1  UNL1        0.0155
      6 C         141.2237  141.5048  163.2902 C.ar    1  UNL1        0.0036
      7 C         140.0178  142.1265  162.6505 C.ar    1  UNL1        0.0297
      8 C         138.7688  142.3396  163.4533 C.ar    1  UNL1        0.1414
      9 F         137.5630  142.9613  162.8137 F       1  UNL1       -0.2041
     10 C         138.7257  141.9308  164.8959 C.ar    1  UNL1        0.0450
     11 C         140.8052  141.5524  167.9703 C.ar    1  UNL1        0.0613
     12 C         142.1835  141.0035  168.1915 C.ar    1  UNL1        0.0153
     13 C         143.1002  141.6557  169.1836 C.ar    1  UNL1        0.0013
     14 C         142.6386  142.8568  169.9545 C.ar    1  UNL1        0.0001
     15 C         141.2602  143.4057  169.7334 C.ar    1  UNL1        0.0013
     16 C         140.3435  142.7535  168.7413 C.ar    1  UNL1        0.0153
     17 O         138.0118  139.1870  166.4366 O.3     1  UNL1       -0.4341
     18 C         138.4030  137.8893  165.7942 C.3     1  UNL1        0.2100
     19 C         141.2012  137.8768  162.2700 C.3     1  UNL1        0.0297
     20 C         139.7666  138.2751  162.0872 C.3     1  UNL1        0.0026
     21 C         138.8339  138.2792  163.2620 C.3     1  UNL1        0.0038
     22 C         139.3358  137.8851  164.6195 C.3     1  UNL1        0.0439
     23 C         140.7703  137.4869  164.8022 C.3     1  UNL1        0.0038
     24 C         141.7030  137.4827  163.6275 C.3     1  UNL1        0.0026
     25 C         142.1339  137.8727  161.0952 C.3     1  UNL1        0.1426
     26 O         143.5692  138.2691  161.2758 O.3     1  UNL1       -0.3478
     27 C         143.9451  139.7201  161.3331 C.3     1  UNL1        0.1835
     28 O         145.4833  141.5046  162.4284 O.co2   1  UNL1       -0.5466
     29 C         144.6442  140.2665  162.5426 C.2     1  UNL1        0.0801
     30 O         144.5043  139.5748  163.8662 O.co2   1  UNL1       -0.5466
@<TRIPOS>UNITY_ATOM_ATTR
28 1
charge -1
@<TRIPOS>BOND
     1    28    29   ar
     2    29    30   ar
     3    29    27    1
     4    27    26    1
     5    26    25    1
     6    19    25    1
     7    19    20    1
     8    20    21    1
     9    21    22    1
    10    22    18    1
    11    18    17    1
    12    17     1    1
    13     1     2    2
    14     1     3   am
    15     3    11    1
    16    11    12   ar
    17    12    13   ar
    18    13    14   ar
    19    14    15   ar
    20    15    16   ar
    21     3     4    1
    22     4     5   ar
    23     5     6   ar
    24     6     7   ar
    25     7     8   ar
    26     8     9    1
    27     8    10   ar
    28    22    23    1
    29    23    24    1
    30    24    19    1
    31    16    11   ar
    32    10     4   ar
@<TRIPOS>MOLECULE
*****
 30 32 0 0 0
SMALL
GASTEIGER

@<TRIPOS>ATOM
      1 C         141.5973  140.5200  163.4076 C.2     1  UNL1        0.4125
      2 O         142.2879  141.5907  162.6160 O.2     1  UNL1       -0.2255
      3 N         140.2375  140.7751  163.9875 N.am    1  UNL1       -0.2037
      4 C         139.5469  139.7044  164.7791 C.ar    1  UNL1        0.0635
      5 C         139.3627  138.3372  164.1903 C.ar    1  UNL1        0.0155
      6 C         138.6720  137.2665  164.9820 C.ar    1  UNL1        0.0036
      7 C         138.1656  137.5631  166.3624 C.ar    1  UNL1        0.0297
      8 C         138.3499  138.9304  166.9512 C.ar    1  UNL1        0.1414
      9 F         137.8435  139.2270  168.3316 F       1  UNL1       -0.2041
     10 C         139.0405  140.0010  166.1596 C.ar    1  UNL1        0.0450
     11 C         139.5685  142.1008  163.7757 C.ar    1  UNL1        0.0613
     12 C         138.5150  142.2488  162.7182 C.ar    1  UNL1        0.0153
     13 C         137.8460  143.5745  162.5064 C.ar    1  UNL1        0.0013
     14 C         138.2304  144.7522  163.3520 C.ar    1  UNL1        0.0001
     15 C         139.2840  144.6043  164.4096 C.ar    1  UNL1        0.0013
     16 C         139.9530  143.2786  164.6214 C.ar    1  UNL1        0.0153
     17 O         142.2663  139.1943  163.6195 O.3     1  UNL1       -0.4341
     18 C         143.2131  139.0070  164.7677 C.3     1  UNL1        0.2100
     19 C         142.8990  141.6488  168.3970 C.3     1  UNL1        0.0297
     20 C         142.6034  140.1825  168.5088 C.3     1  UNL1        0.0026
     21 C         142.7081  139.3019  167.2991 C.3     1  UNL1        0.0038
     22 C         143.1084  139.8876  165.9775 C.3     1  UNL1        0.0439
     23 C         143.4040  141.3539  165.8656 C.3     1  UNL1        0.0038
     24 C         143.2993  142.2345  167.0754 C.3     1  UNL1        0.0026
     25 C         142.7943  142.5294  169.6068 C.3     1  UNL1        0.1426
     26 O         141.7165  143.5696  169.6863 O.3     1  UNL1       -0.3478
     27 C         140.2749  143.1557  169.7071 C.3     1  UNL1        0.1835
     28 O         138.6918  141.2201  170.4121 O.co2   1  UNL1       -0.5466
     29 C         139.7869  142.1893  170.7454 C.2     1  UNL1        0.0801
     30 O         140.3942  142.1922  172.1170 O.co2   1  UNL1       -0.5466
@<TRIPOS>UNITY_ATOM_ATTR
28 1
charge -1
@<TRIPOS>BOND
     1    28    29   ar
     2    29    30   ar
     3    29    27    1
     4    27    26    1
     5    26    25    1
     6    19    25    1
     7    19    20    1
     8    20    21    1
     9    21    22    1
    10    22    18    1
    11    18    17    1
    12    17     1    1
    13     1     2    2
    14     1     3   am
    15     3    11    1
    16    11    12   ar
    17    12    13   ar
    18    13    14   ar
    19    14    15   ar
    20    15    16   ar
    21     3     4    1
    22     4     5   ar
    23     5     6   ar
    24     6     7   ar
    25     7     8   ar
    26     8     9    1
    27     8    10   ar
    28    22    23    1
    29    23    24    1
    30    24    19    1
    31    16    11   ar
    32    10     4   ar
@<TRIPOS>MOLECULE
*****
 30 32 0 0 0
SMALL
GASTEIGER

@<TRIPOS>ATOM
      1 C         138.9428  139.8566  167.5905 C.2     1  UNL1        0.4125
      2 O         138.9037  139.4785  169.0415 O.2     1  UNL1       -0.2255
      3 N         139.8953  140.9140  167.1163 N.am    1  UNL1       -0.2037
      4 C         139.9344  141.2920  165.6653 C.ar    1  UNL1        0.0635
      5 C         141.1906  141.0892  164.8710 C.ar    1  UNL1        0.0155
      6 C         141.2297  141.4673  163.4199 C.ar    1  UNL1        0.0036
      7 C         140.0126  142.0481  162.7632 C.ar    1  UNL1        0.0297
      8 C         138.7564  142.2509  163.5575 C.ar    1  UNL1        0.1414
      9 F         137.5393  142.8316  162.9007 F       1  UNL1       -0.2041
     10 C         138.7173  141.8728  165.0085 C.ar    1  UNL1        0.0450
     11 C         140.8086  141.5932  168.0933 C.ar    1  UNL1        0.0613
     12 C         140.3354  142.7999  168.8482 C.ar    1  UNL1        0.0153
     13 C         141.2488  143.4792  169.8252 C.ar    1  UNL1        0.0013
     14 C         142.6353  142.9518  170.0471 C.ar    1  UNL1        0.0001
     15 C         143.1086  141.7451  169.2921 C.ar    1  UNL1        0.0013
     16 C         142.1953  141.0658  168.3152 C.ar    1  UNL1        0.0153
     17 O         138.0294  139.1773  166.6136 O.3     1  UNL1       -0.4341
     18 C         138.4491  137.8925  165.9630 C.3     1  UNL1        0.2100
     19 C         140.7719  137.9755  162.1098 C.3     1  UNL1        0.0297
     20 C         139.3491  138.4495  162.1382 C.3     1  UNL1        0.0026
     21 C         138.5748  138.4219  163.4226 C.3     1  UNL1        0.0038
     22 C         139.2234  137.9202  164.6786 C.3     1  UNL1        0.0439
     23 C         140.6462  137.4462  164.6502 C.3     1  UNL1        0.0038
     24 C         141.4204  137.4738  163.3658 C.3     1  UNL1        0.0026
     25 C         141.5462  138.0031  160.8253 C.3     1  UNL1        0.1426
     26 O         142.9572  137.4955  160.7891 O.3     1  UNL1       -0.3478
     27 C         144.1030  138.4557  160.9123 C.3     1  UNL1        0.1835
     28 O         143.9482  141.0481  160.9870 O.co2   1  UNL1       -0.5466
     29 C         144.0556  139.7753  160.2006 C.2     1  UNL1        0.0801
     30 O         144.1157  139.8220  158.7025 O.co2   1  UNL1       -0.5466
@<TRIPOS>UNITY_ATOM_ATTR
28 1
charge -1
@<TRIPOS>BOND
     1    28    29   ar
     2    29    30   ar
     3    29    27    1
     4    27    26    1
     5    26    25    1
     6    19    25    1
     7    19    20    1
     8    20    21    1
     9    21    22    1
    10    22    18    1
    11    18    17    1
    12    17     1    1
    13     1     2    2
    14     1     3   am
    15     3    11    1
    16    11    12   ar
    17    12    13   ar
    18    13    14   ar
    19    14    15   ar
    20    15    16   ar
    21     3     4    1
    22     4     5   ar
    23     5     6   ar
    24     6     7   ar
    25     7     8   ar
    26     8     9    1
    27     8    10   ar
    28    22    23    1
    29    23    24    1
    30    24    19    1
    31    16    11   ar
    32    10     4   ar
@<TRIPOS>MOLECULE
*****
 30 32 0 0 0
SMALL
GASTEIGER

@<TRIPOS>ATOM
      1 C         138.8528  142.5542  165.2160 C.2     1  UNL1        0.4125
      2 O         137.6735  142.1984  164.3602 O.2     1  UNL1       -0.2255
      3 N         139.6368  141.4734  165.8996 N.am    1  UNL1       -0.2037
      4 C         140.8162  141.8292  166.7554 C.ar    1  UNL1        0.0635
      5 C         142.1975  141.8186  166.1707 C.ar    1  UNL1        0.0155
      6 C         143.3769  142.1745  167.0266 C.ar    1  UNL1        0.0036
      7 C         143.1749  142.5409  168.4671 C.ar    1  UNL1        0.0297
      8 C         141.7936  142.5515  169.0517 C.ar    1  UNL1        0.1414
      9 F         141.5916  142.9180  170.4921 F       1  UNL1       -0.2041
     10 C         140.6143  142.1957  168.1959 C.ar    1  UNL1        0.0450
     11 C         139.2414  140.0367  165.7273 C.ar    1  UNL1        0.0613
     12 C         139.7841  139.2423  164.5764 C.ar    1  UNL1        0.0153
     13 C         139.3886  137.8057  164.4041 C.ar    1  UNL1        0.0013
     14 C         138.4506  137.1634  165.3827 C.ar    1  UNL1        0.0001
     15 C         137.9080  137.9578  166.5336 C.ar    1  UNL1        0.0013
     16 C         138.3034  139.3945  166.7059 C.ar    1  UNL1        0.0153
     17 O         139.2482  143.9909  165.3883 O.3     1  UNL1       -0.4341
     18 C         139.9012  144.7298  164.2580 C.3     1  UNL1        0.2100
     19 C         143.7589  143.2114  162.5079 C.3     1  UNL1        0.0297
     20 C         143.7584  144.4380  163.3713 C.3     1  UNL1        0.0026
     21 C         142.4725  144.9441  163.9547 C.3     1  UNL1        0.0038
     22 C         141.1871  144.2237  163.6746 C.3     1  UNL1        0.0439
     23 C         141.1875  142.9971  162.8113 C.3     1  UNL1        0.0038
     24 C         142.4734  142.4910  162.2279 C.3     1  UNL1        0.0026
     25 C         145.0448  142.7053  161.9246 C.3     1  UNL1        0.1426
     26 O         145.8044  141.6134  162.6179 O.3     1  UNL1       -0.3478
     27 C         145.2881  141.0409  163.9046 C.3     1  UNL1        0.1835
     28 O         144.2924  139.0319  165.2171 O.co2   1  UNL1       -0.5466
     29 C         144.6220  139.6969  163.9136 C.2     1  UNL1        0.0801
     30 O         144.2855  139.0179  162.6191 O.co2   1  UNL1       -0.5466
@<TRIPOS>UNITY_ATOM_ATTR
28 1
charge -1
@<TRIPOS>BOND
     1    28    29   ar
     2    29    30   ar
     3    29    27    1
     4    27    26    1
     5    26    25    1
     6    19    25    1
     7    19    20    1
     8    20    21    1
     9    21    22    1
    10    22    18    1
    11    18    17    1
    12    17     1    1
    13     1     2    2
    14     1     3   am
    15     3    11    1
    16    11    12   ar
    17    12    13   ar
    18    13    14   ar
    19    14    15   ar
    20    15    16   ar
    21     3     4    1
    22     4     5   ar
    23     5     6   ar
    24     6     7   ar
    25     7     8   ar
    26     8     9    1
    27     8    10   ar
    28    22    23    1
    29    23    24    1
    30    24    19    1
    31    16    11   ar
    32    10     4   ar
@<TRIPOS>MOLECULE
*****
 30 32 0 0 0
SMALL
GASTEIGER

@<TRIPOS>ATOM
      1 C         142.2690  139.1869  166.7363 C.2     1  UNL1        0.4125
      2 O         143.1343  139.2280  167.9608 O.2     1  UNL1       -0.2255
      3 N         140.9774  139.9491  166.7047 N.am    1  UNL1       -0.2037
      4 C         140.1120  139.9080  165.4802 C.ar    1  UNL1        0.0635
      5 C         139.6566  141.1861  164.8405 C.ar    1  UNL1        0.0155
      6 C         138.7912  141.1450  163.6159 C.ar    1  UNL1        0.0036
      7 C         138.3813  139.8259  163.0311 C.ar    1  UNL1        0.0297
      8 C         138.8368  138.5479  163.6708 C.ar    1  UNL1        0.1414
      9 F         138.4269  137.2288  163.0861 F       1  UNL1       -0.2041
     10 C         139.7021  138.5889  164.8953 C.ar    1  UNL1        0.0450
     11 C         140.5512  140.7523  167.8977 C.ar    1  UNL1        0.0613
     12 C         139.6045  140.1617  168.9002 C.ar    1  UNL1        0.0153
     13 C         139.1783  140.9649  170.0932 C.ar    1  UNL1        0.0013
     14 C         139.6988  142.3587  170.2837 C.ar    1  UNL1        0.0001
     15 C         140.6455  142.9494  169.2812 C.ar    1  UNL1        0.0013
     16 C         141.0717  142.1462  168.0882 C.ar    1  UNL1        0.0153
     17 O         142.6952  138.3837  165.5433 O.3     1  UNL1       -0.4341
     18 C         143.6427  138.9739  164.5414 C.3     1  UNL1        0.2100
     19 C         142.8916  143.0912  162.8878 C.3     1  UNL1        0.0297
     20 C         142.2908  141.8921  162.2161 C.3     1  UNL1        0.0026
     21 C         142.5412  140.5197  162.7673 C.3     1  UNL1        0.0038
     22 C         143.3923  140.3464  163.9902 C.3     1  UNL1        0.0439
     23 C         143.9931  141.5454  164.6619 C.3     1  UNL1        0.0038
     24 C         143.7427  142.9179  164.1107 C.3     1  UNL1        0.0026
     25 C         142.6413  144.4636  162.3366 C.3     1  UNL1        0.1426
     26 O         141.4203  145.2283  162.7542 O.3     1  UNL1       -0.3478
     27 C         140.5870  144.7419  163.9027 C.3     1  UNL1        0.1835
     28 O         138.2762  144.7442  165.0903 O.co2   1  UNL1       -0.5466
     29 C         139.0911  144.8289  163.8338 C.2     1  UNL1        0.0801
     30 O         138.4101  145.0007  162.5084 O.co2   1  UNL1       -0.5466
@<TRIPOS>UNITY_ATOM_ATTR
28 1
charge -1
@<TRIPOS>BOND
     1    28    29   ar
     2    29    30   ar
     3    29    27    1
     4    27    26    1
     5    26    25    1
     6    19    25    1
     7    19    20    1
     8    20    21    1
     9    21    22    1
    10    22    18    1
    11    18    17    1
    12    17     1    1
    13     1     2    2
    14     1     3   am
    15     3    11    1
    16    11    12   ar
    17    12    13   ar
    18    13    14   ar
    19    14    15   ar
    20    15    16   ar
    21     3     4    1
    22     4     5   ar
    23     5     6   ar
    24     6     7   ar
    25     7     8   ar
    26     8     9    1
    27     8    10   ar
    28    22    23    1
    29    23    24    1
    30    24    19    1
    31    16    11   ar
    32    10     4   ar
@<TRIPOS>MOLECULE
*****
 30 32 0 0 0
SMALL
GASTEIGER

@<TRIPOS>ATOM
      1 C         143.1339  140.5035  165.2351 C.2     1  UNL1        0.4125
      2 O         143.5601  140.5318  163.7972 O.2     1  UNL1       -0.2255
      3 N         142.5480  141.7307  165.8680 N.am    1  UNL1       -0.2037
      4 C         142.1219  141.7024  167.3059 C.ar    1  UNL1        0.0635
      5 C         143.0428  142.2187  168.3714 C.ar    1  UNL1        0.0155
      6 C         142.6166  142.1903  169.8094 C.ar    1  UNL1        0.0036
      7 C         141.2696  141.6457  170.1818 C.ar    1  UNL1        0.0297
      8 C         140.3486  141.1294  169.1162 C.ar    1  UNL1        0.1414
      9 F         139.0015  140.5848  169.4886 F       1  UNL1       -0.2041
     10 C         140.7747  141.1578  167.6784 C.ar    1  UNL1        0.0450
     11 C         142.3883  142.9863  165.0630 C.ar    1  UNL1        0.0613
     12 C         143.5949  143.7926  164.6838 C.ar    1  UNL1        0.0153
     13 C         143.4352  145.0482  163.8788 C.ar    1  UNL1        0.0013
     14 C         142.0688  145.4975  163.4531 C.ar    1  UNL1        0.0001
     15 C         140.8621  144.6911  163.8323 C.ar    1  UNL1        0.0013
     16 C         141.0219  143.4355  164.6373 C.ar    1  UNL1        0.0153
     17 O         143.2937  139.2479  166.0401 O.3     1  UNL1       -0.4341
     18 C         142.6279  137.9804  165.5928 C.3     1  UNL1        0.2100
     19 C         139.1080  138.1541  162.7945 C.3     1  UNL1        0.0297
     20 C         140.4534  137.7329  162.2822 C.3     1  UNL1        0.0026
     21 C         141.6266  137.6750  163.2149 C.3     1  UNL1        0.0038
     22 C         141.4546  138.0383  164.6600 C.3     1  UNL1        0.0439
     23 C         140.1092  138.4596  165.1723 C.3     1  UNL1        0.0038
     24 C         138.9359  138.5175  164.2396 C.3     1  UNL1        0.0026
     25 C         137.9347  138.2121  161.8617 C.3     1  UNL1        0.1426
     26 O         137.7548  139.3936  160.9553 O.3     1  UNL1       -0.3478
     27 C         138.5191  140.6586  161.2114 C.3     1  UNL1        0.1835
     28 O         137.9811  143.1996  161.1489 O.co2   1  UNL1       -0.5466
     29 C         137.8202  141.8531  161.7900 C.2     1  UNL1        0.0801
     30 O         136.9604  141.7010  163.0097 O.co2   1  UNL1       -0.5466
@<TRIPOS>UNITY_ATOM_ATTR
28 1
charge -1
@<TRIPOS>BOND
     1    28    29   ar
     2    29    30   ar
     3    29    27    1
     4    27    26    1
     5    26    25    1
     6    19    25    1
     7    19    20    1
     8    20    21    1
     9    21    22    1
    10    22    18    1
    11    18    17    1
    12    17     1    1
    13     1     2    2
    14     1     3   am
    15     3    11    1
    16    11    12   ar
    17    12    13   ar
    18    13    14   ar
    19    14    15   ar
    20    15    16   ar
    21     3     4    1
    22     4     5   ar
    23     5     6   ar
    24     6     7   ar
    25     7     8   ar
    26     8     9    1
    27     8    10   ar
    28    22    23    1
    29    23    24    1
    30    24    19    1
    31    16    11   ar
    32    10     4   ar
@<TRIPOS>MOLECULE
*****
 30 32 0 0 0
SMALL
GASTEIGER

@<TRIPOS>ATOM
      1 C         139.8613  139.8832  167.5736 C.2     1  UNL1        0.4125
      2 O         139.4855  139.6317  169.0037 O.2     1  UNL1       -0.2255
      3 N         140.8653  140.9459  167.2376 N.am    1  UNL1       -0.2037
      4 C         141.2410  141.1975  165.8074 C.ar    1  UNL1        0.0635
      5 C         140.9544  142.5294  165.1798 C.ar    1  UNL1        0.0155
      6 C         141.3302  142.7809  163.7495 C.ar    1  UNL1        0.0036
      7 C         141.9926  141.7005  162.9470 C.ar    1  UNL1        0.0297
      8 C         142.2792  140.3686  163.5746 C.ar    1  UNL1        0.1414
      9 F         142.9415  139.2883  162.7721 F       1  UNL1       -0.2041
     10 C         141.9034  140.1171  165.0048 C.ar    1  UNL1        0.0450
     11 C         141.4934  141.7571  168.3319 C.ar    1  UNL1        0.0613
     12 C         140.7023  142.8310  169.0180 C.ar    1  UNL1        0.0153
     13 C         141.3304  143.6422  170.1123 C.ar    1  UNL1        0.0013
     14 C         142.7496  143.3794  170.5205 C.ar    1  UNL1        0.0001
     15 C         143.5408  142.3054  169.8344 C.ar    1  UNL1        0.0013
     16 C         142.9127  141.4942  168.7401 C.ar    1  UNL1        0.0153
     17 O         139.2332  139.0721  166.4792 O.3     1  UNL1       -0.4341
     18 C         138.0108  139.5818  165.7750 C.3     1  UNL1        0.2100
     19 C         138.3476  141.2619  161.6140 C.3     1  UNL1        0.0297
     20 C         137.8169  142.1160  162.7271 C.3     1  UNL1        0.0026
     21 C         137.7046  141.5559  164.1140 C.3     1  UNL1        0.0038
     22 C         138.1231  140.1418  164.3880 C.3     1  UNL1        0.0439
     23 C         138.6538  139.2878  163.2750 C.3     1  UNL1        0.0038
     24 C         138.7661  139.8478  161.8880 C.3     1  UNL1        0.0026
     25 C         138.4598  141.8220  160.2271 C.3     1  UNL1        0.1426
     26 O         138.7487  143.2804  160.0282 O.3     1  UNL1       -0.3478
     27 C         140.1190  143.8194  160.3145 C.3     1  UNL1        0.1835
     28 O         139.5068  146.3179  160.6786 O.co2   1  UNL1       -0.5466
     29 C         140.4132  145.2741  160.0967 C.2     1  UNL1        0.0801
     30 O         141.6140  145.6848  159.2971 O.co2   1  UNL1       -0.5466
@<TRIPOS>UNITY_ATOM_ATTR
28 1
charge -1
@<TRIPOS>BOND
     1    28    29   ar
     2    29    30   ar
     3    29    27    1
     4    27    26    1
     5    26    25    1
     6    19    25    1
     7    19    20    1
     8    20    21    1
     9    21    22    1
    10    22    18    1
    11    18    17    1
    12    17     1    1
    13     1     2    2
    14     1     3   am
    15     3    11    1
    16    11    12   ar
    17    12    13   ar
    18    13    14   ar
    19    14    15   ar
    20    15    16   ar
    21     3     4    1
    22     4     5   ar
    23     5     6   ar
    24     6     7   ar
    25     7     8   ar
    26     8     9    1
    27     8    10   ar
    28    22    23    1
    29    23    24    1
    30    24    19    1
    31    16    11   ar
    32    10     4   ar
@<TRIPOS>MOLECULE
*****
 30 32 0 0 0
SMALL
GASTEIGER

@<TRIPOS>ATOM
      1 C         143.1448  143.7508  164.4895 C.2     1  UNL1        0.4125
      2 O         142.9646  144.8788  163.5174 O.2     1  UNL1       -0.2255
      3 N         141.9514  142.9867  164.9815 N.am    1  UNL1       -0.2037
      4 C         142.1317  141.8586  165.9536 C.ar    1  UNL1        0.0635
      5 C         141.7229  140.4669  165.5717 C.ar    1  UNL1        0.0155
      6 C         141.9032  139.3388  166.5438 C.ar    1  UNL1        0.0036
      7 C         142.4923  139.6026  167.8978 C.ar    1  UNL1        0.0297
      8 C         142.9010  140.9943  168.2798 C.ar    1  UNL1        0.1414
      9 F         143.4901  141.2581  169.6338 F       1  UNL1       -0.2041
     10 C         142.7208  142.1224  167.3077 C.ar    1  UNL1        0.0450
     11 C         140.5778  143.3507  164.5013 C.ar    1  UNL1        0.0613
     12 C         139.6582  144.1386  165.3865 C.ar    1  UNL1        0.0153
     13 C         138.2845  144.5026  164.9063 C.ar    1  UNL1        0.0013
     14 C         137.8304  144.0787  163.5410 C.ar    1  UNL1        0.0001
     15 C         138.7500  143.2907  162.6558 C.ar    1  UNL1        0.0013
     16 C         140.1237  142.9267  163.1360 C.ar    1  UNL1        0.0153
     17 O         144.5185  143.3867  164.9697 O.3     1  UNL1       -0.4341
     18 C         145.4174  142.5509  164.1075 C.3     1  UNL1        0.2100
     19 C         143.7554  138.9937  161.9088 C.3     1  UNL1        0.0297
     20 C         143.8065  140.3339  161.2370 C.3     1  UNL1        0.0026
     21 C         144.3605  141.5196  161.9699 C.3     1  UNL1        0.0038
     22 C         144.8634  141.3652  163.3746 C.3     1  UNL1        0.0439
     23 C         144.8122  140.0250  164.0464 C.3     1  UNL1        0.0038
     24 C         144.2582  138.8393  163.3135 C.3     1  UNL1        0.0026
     25 C         143.2013  137.8080  161.1759 C.3     1  UNL1        0.1426
     26 O         141.7542  137.4430  161.3254 O.3     1  UNL1       -0.3478
     27 C         140.8627  138.2591  162.2138 C.3     1  UNL1        0.1835
     28 O         141.1980  136.7702  164.3164 O.co2   1  UNL1       -0.5466
     29 C         140.3312  137.6708  163.4872 C.2     1  UNL1        0.0801
     30 O         138.9329  137.9831  163.9313 O.co2   1  UNL1       -0.5466
@<TRIPOS>UNITY_ATOM_ATTR
28 1
charge -1
@<TRIPOS>BOND
     1    28    29   ar
     2    29    30   ar
     3    29    27    1
     4    27    26    1
     5    26    25    1
     6    19    25    1
     7    19    20    1
     8    20    21    1
     9    21    22    1
    10    22    18    1
    11    18    17    1
    12    17     1    1
    13     1     2    2
    14     1     3   am
    15     3    11    1
    16    11    12   ar
    17    12    13   ar
    18    13    14   ar
    19    14    15   ar
    20    15    16   ar
    21     3     4    1
    22     4     5   ar
    23     5     6   ar
    24     6     7   ar
    25     7     8   ar
    26     8     9    1
    27     8    10   ar
    28    22    23    1
    29    23    24    1
    30    24    19    1
    31    16    11   ar
    32    10     4   ar
@<TRIPOS>MOLECULE
*****
 30 32 0 0 0
SMALL
GASTEIGER

@<TRIPOS>ATOM
      1 C         140.5279  143.8334  164.9415 C.2     1  UNL1        0.4125
      2 O         141.1030  144.4943  163.7240 O.2     1  UNL1       -0.2255
      3 N         141.2821  142.7304  165.6231 N.am    1  UNL1       -0.2037
      4 C         140.7070  142.0694  166.8405 C.ar    1  UNL1        0.0635
      5 C         140.1468  140.6811  166.7462 C.ar    1  UNL1        0.0155
      6 C         139.5716  140.0201  167.9638 C.ar    1  UNL1        0.0036
      7 C         139.5566  140.7474  169.2755 C.ar    1  UNL1        0.0297
      8 C         140.1167  142.1357  169.3698 C.ar    1  UNL1        0.1414
      9 F         140.1017  142.8630  170.6816 F       1  UNL1       -0.2041
     10 C         140.6919  142.7967  168.1524 C.ar    1  UNL1        0.0450
     11 C         142.6116  142.2884  165.0872 C.ar    1  UNL1        0.0613
     12 C         143.8347  143.1203  165.3361 C.ar    1  UNL1        0.0153
     13 C         145.1642  142.6784  164.8002 C.ar    1  UNL1        0.0013
     14 C         145.2706  141.4045  164.0154 C.ar    1  UNL1        0.0001
     15 C         144.0474  140.5725  163.7665 C.ar    1  UNL1        0.0013
     16 C         142.7180  141.0145  164.3024 C.ar    1  UNL1        0.0153
     17 O         139.1984  144.2753  165.4774 O.3     1  UNL1       -0.4341
     18 C         137.9383  143.9146  164.7480 C.3     1  UNL1        0.2100
     19 C         137.8851  140.3839  161.9586 C.3     1  UNL1        0.0297
     20 C         137.8199  140.1691  163.4417 C.3     1  UNL1        0.0026
     21 C         137.8376  141.3460  164.3715 C.3     1  UNL1        0.0038
     22 C         137.9205  142.7377  163.8182 C.3     1  UNL1        0.0439
     23 C         137.9857  142.9525  162.3351 C.3     1  UNL1        0.0038
     24 C         137.9680  141.7756  161.4053 C.3     1  UNL1        0.0026
     25 C         137.8673  139.2070  161.0288 C.3     1  UNL1        0.1426
     26 O         138.9434  138.1657  161.1163 O.3     1  UNL1       -0.3478
     27 C         140.3849  138.5784  161.1576 C.3     1  UNL1        0.1835
     28 O         142.8356  137.9255  161.7216 O.co2   1  UNL1       -0.5466
     29 C         141.3643  137.8005  161.9858 C.2     1  UNL1        0.0801
     30 O         140.8725  136.8977  163.0780 O.co2   1  UNL1       -0.5466
@<TRIPOS>UNITY_ATOM_ATTR
28 1
charge -1
@<TRIPOS>BOND
     1    28    29   ar
     2    29    30   ar
     3    29    27    1
     4    27    26    1
     5    26    25    1
     6    19    25    1
     7    19    20    1
     8    20    21    1
     9    21    22    1
    10    22    18    1
    11    18    17    1
    12    17     1    1
    13     1     2    2
    14     1     3   am
    15     3    11    1
    16    11    12   ar
    17    12    13   ar
    18    13    14   ar
    19    14    15   ar
    20    15    16   ar
    21     3     4    1
    22     4     5   ar
    23     5     6   ar
    24     6     7   ar
    25     7     8   ar
    26     8     9    1
    27     8    10   ar
    28    22    23    1
    29    23    24    1
    30    24    19    1
    31    16    11   ar
    32    10     4   ar
