@<TRIPOS>MOLECULE
*****
 29 32 0 0 0
SMALL
GASTEIGER

@<TRIPOS>ATOM
      1 C         141.4527  142.0842  166.2677 C.3     1  UNL1        0.0510
      2 C         140.9623  142.5209  167.6164 C.3     1  UNL1        0.0489
      3 C         141.2416  141.6777  168.8251 C.3     1  UNL1        0.1364
      4 C         140.4719  142.9574  168.9651 C.3     1  UNL1        0.0571
      5 C         139.9814  143.3940  170.3137 C.3     1  UNL1        0.0722
      6 N         140.2608  142.5508  171.5224 N.3     1  UNL1       -0.2973
      7 C         141.0306  141.2710  171.3825 C.3     1  UNL1        0.0722
      8 C         141.5210  140.8345  170.0339 C.3     1  UNL1        0.0571
      9 O         142.0115  140.3979  168.6852 O.3     1  UNL1       -0.4828
     10 C         142.5019  139.9613  167.3365 C.ar    1  UNL1        0.1345
     11 C         143.2717  138.6815  167.1965 C.ar    1  UNL1        0.0366
     12 C         143.7621  138.2449  165.8479 C.ar    1  UNL1        0.0031
     13 C         143.4827  139.0881  164.6392 C.ar    1  UNL1       -0.0001
     14 C         142.7129  140.3679  164.7791 C.ar    1  UNL1       -0.0010
     15 C         142.2225  140.8045  166.1278 C.ar    1  UNL1        0.0156
     16 H         139.3567  142.3078  171.9273 H       1  UNL1        0.1233
     17 C         140.6146  144.6138  162.6416 C.ar    1  UNL1        0.0536
     18 C         139.5790  143.6494  163.1390 C.ar    1  UNL1        0.0042
     19 C         139.8583  142.8062  164.3477 C.ar    1  UNL1       -0.0038
     20 C         141.1733  142.9274  165.0590 C.ar    1  UNL1       -0.0182
     21 C         142.2091  143.8918  164.5617 C.ar    1  UNL1       -0.0038
     22 C         141.9297  144.7350  163.3530 C.ar    1  UNL1        0.0042
     23 N         140.7245  144.9664  160.0699 N.am    1  UNL1       -0.2761
     24 C         140.3352  145.4570  161.4329 C.2     1  UNL1        0.2490
     25 O         139.6665  146.7909  161.5872 O.2     1  UNL1       -0.2699
     26 C         141.4186  145.8306  157.7201 C.3     1  UNL1        0.0233
     27 C         140.4452  145.8096  158.8612 C.3     1  UNL1        0.0938
     28 C         141.3933  143.6326  159.9156 C.3     1  UNL1        0.0938
     29 C         140.5837  142.4265  159.5418 C.3     1  UNL1        0.0233
@<TRIPOS>BOND
     1    26    27    1
     2    27    23    1
     3    23    28    1
     4    28    29    1
     5    23    24   am
     6    24    25    2
     7    24    17    1
     8    17    18   ar
     9    18    19   ar
    10    19    20   ar
    11    20     1    1
    12     1     2    1
    13     2     3    1
    14     3     4    1
    15     4     5    1
    16     5     6    1
    17     6     7    1
    18     7     8    1
    19     3     9    1
    20     9    10    1
    21    10    11   ar
    22    11    12   ar
    23    12    13   ar
    24    13    14   ar
    25    14    15   ar
    26    20    21   ar
    27    21    22   ar
    28    22    17   ar
    29    15     1    1
    30     8     3    1
    31    15    10   ar
    32     6    16    1
@<TRIPOS>MOLECULE
*****
 29 32 0 0 0
SMALL
GASTEIGER

@<TRIPOS>ATOM
      1 C         139.7955  141.9213  165.8135 C.3     1  UNL1        0.0510
      2 C         140.1879  142.4168  167.1739 C.3     1  UNL1        0.0489
      3 C         140.1575  141.4851  168.3490 C.3     1  UNL1        0.1364
      4 C         140.5803  142.9123  168.5342 C.3     1  UNL1        0.0571
      5 C         140.9727  143.4078  169.8945 C.3     1  UNL1        0.0722
      6 N         140.9423  142.4760  171.0696 N.3     1  UNL1       -0.2973
      7 C         140.5195  141.0489  170.8845 C.3     1  UNL1        0.0722
      8 C         140.1271  140.5534  169.5242 C.3     1  UNL1        0.0571
      9 O         139.7347  140.0579  168.1638 O.3     1  UNL1       -0.4828
     10 C         139.3423  139.5624  166.8035 C.ar    1  UNL1        0.1345
     11 C         138.9195  138.1351  166.6183 C.ar    1  UNL1        0.0366
     12 C         138.5271  137.6397  165.2579 C.ar    1  UNL1        0.0031
     13 C         138.5575  138.5714  164.0828 C.ar    1  UNL1       -0.0001
     14 C         138.9803  139.9986  164.2680 C.ar    1  UNL1       -0.0010
     15 C         139.3727  140.4941  165.6283 C.ar    1  UNL1        0.0156
     16 H         140.3057  142.8853  171.7535 H       1  UNL1        0.1233
     17 C         139.8867  144.7165  162.2881 C.ar    1  UNL1        0.0536
     18 C         141.1701  144.2456  162.9053 C.ar    1  UNL1        0.0042
     19 C         141.1397  143.3139  164.0804 C.ar    1  UNL1       -0.0038
     20 C         139.8259  142.8530  164.6384 C.ar    1  UNL1       -0.0182
     21 C         138.5423  143.3239  164.0211 C.ar    1  UNL1       -0.0038
     22 C         138.5727  144.2556  162.8460 C.ar    1  UNL1        0.0042
     23 N         140.2914  145.1313  159.7555 N.am    1  UNL1       -0.2761
     24 C         139.9171  145.6482  161.1129 C.2     1  UNL1        0.2490
     25 O         139.5732  147.0968  161.2953 O.2     1  UNL1       -0.2699
     26 C         141.1536  145.7270  157.3781 C.3     1  UNL1        0.0233
     27 C         140.3218  146.0630  158.5803 C.3     1  UNL1        0.0938
     28 C         140.6353  143.6827  159.5731 C.3     1  UNL1        0.0938
     29 C         139.5614  142.6949  159.2254 C.3     1  UNL1        0.0233
@<TRIPOS>BOND
     1    26    27    1
     2    27    23    1
     3    23    28    1
     4    28    29    1
     5    23    24   am
     6    24    25    2
     7    24    17    1
     8    17    18   ar
     9    18    19   ar
    10    19    20   ar
    11    20     1    1
    12     1     2    1
    13     2     3    1
    14     3     4    1
    15     4     5    1
    16     5     6    1
    17     6     7    1
    18     7     8    1
    19     3     9    1
    20     9    10    1
    21    10    11   ar
    22    11    12   ar
    23    12    13   ar
    24    13    14   ar
    25    14    15   ar
    26    20    21   ar
    27    21    22   ar
    28    22    17   ar
    29    15     1    1
    30     8     3    1
    31    15    10   ar
    32     6    16    1
@<TRIPOS>MOLECULE
*****
 29 32 0 0 0
SMALL
GASTEIGER

@<TRIPOS>ATOM
      1 C         141.5219  140.9268  166.2926 C.3     1  UNL1        0.0510
      2 C         142.1480  141.5524  167.5037 C.3     1  UNL1        0.0489
      3 C         141.5086  141.3841  168.8501 C.3     1  UNL1        0.1364
      4 C         142.7740  142.1781  168.7147 C.3     1  UNL1        0.0571
      5 C         143.4000  142.8037  169.9257 C.3     1  UNL1        0.0722
      6 N         142.7606  142.6353  171.2722 N.3     1  UNL1       -0.2973
      7 C         141.4953  141.8414  171.4076 C.3     1  UNL1        0.0722
      8 C         140.8693  141.2157  170.1965 C.3     1  UNL1        0.0571
      9 O         140.2432  140.5900  168.9854 O.3     1  UNL1       -0.4828
     10 C         139.6172  139.9644  167.7744 C.ar    1  UNL1        0.1345
     11 C         138.3517  139.1704  167.9098 C.ar    1  UNL1        0.0366
     12 C         137.7257  138.5447  166.6987 C.ar    1  UNL1        0.0031
     13 C         138.3651  138.7131  165.3523 C.ar    1  UNL1       -0.0001
     14 C         139.6305  139.5071  165.2169 C.ar    1  UNL1       -0.0010
     15 C         140.2565  140.1328  166.4280 C.ar    1  UNL1        0.0156
     16 H         142.5592  143.5722  171.6217 H       1  UNL1        0.1233
     17 C         143.4400  141.4319  162.2533 C.ar    1  UNL1        0.0536
     18 C         143.9387  140.3749  163.1935 C.ar    1  UNL1        0.0042
     19 C         143.2994  140.2065  164.5399 C.ar    1  UNL1       -0.0038
     20 C         142.1613  141.0951  164.9462 C.ar    1  UNL1       -0.0182
     21 C         141.6625  142.1522  164.0059 C.ar    1  UNL1       -0.0038
     22 C         142.3018  142.3205  162.6595 C.ar    1  UNL1        0.0042
     23 N         143.6210  140.7639  159.7491 N.am    1  UNL1       -0.2761
     24 C         144.0794  141.6002  160.9069 C.2     1  UNL1        0.2490
     25 O         145.1771  142.6049  160.7182 O.2     1  UNL1       -0.2699
     26 C         143.8340  142.0561  157.5052 C.3     1  UNL1        0.0233
     27 C         144.2604  140.9323  158.4027 C.3     1  UNL1        0.0938
     28 C         142.5232  139.7592  159.9377 C.3     1  UNL1        0.0938
     29 C         142.8593  138.3160  160.1707 C.3     1  UNL1        0.0233
@<TRIPOS>BOND
     1    26    27    1
     2    27    23    1
     3    23    28    1
     4    28    29    1
     5    23    24   am
     6    24    25    2
     7    24    17    1
     8    17    18   ar
     9    18    19   ar
    10    19    20   ar
    11    20     1    1
    12     1     2    1
    13     2     3    1
    14     3     4    1
    15     4     5    1
    16     5     6    1
    17     6     7    1
    18     7     8    1
    19     3     9    1
    20     9    10    1
    21    10    11   ar
    22    11    12   ar
    23    12    13   ar
    24    13    14   ar
    25    14    15   ar
    26    20    21   ar
    27    21    22   ar
    28    22    17   ar
    29    15     1    1
    30     8     3    1
    31    15    10   ar
    32     6    16    1
@<TRIPOS>MOLECULE
*****
 29 32 0 0 0
SMALL
GASTEIGER

@<TRIPOS>ATOM
      1 C         142.0085  142.2459  162.5211 C.3     1  UNL1        0.0510
      2 C         142.6259  141.3245  161.5112 C.3     1  UNL1        0.0489
      3 C         142.5632  141.6620  160.0510 C.3     1  UNL1        0.1364
      4 C         143.2433  140.4032  160.5013 C.3     1  UNL1        0.0571
      5 C         143.8607  139.4818  159.4914 C.3     1  UNL1        0.0722
      6 N         143.7980  139.8193  158.0312 N.3     1  UNL1       -0.2973
      7 C         143.1179  141.0781  157.5809 C.3     1  UNL1        0.0722
      8 C         142.5005  141.9994  158.5908 C.3     1  UNL1        0.0571
      9 O         141.8831  142.9208  159.6007 O.3     1  UNL1       -0.4828
     10 C         141.2657  143.8422  160.6105 C.ar    1  UNL1        0.1345
     11 C         140.5855  145.1011  160.1602 C.ar    1  UNL1        0.0366
     12 C         139.9681  146.0224  161.1701 C.ar    1  UNL1        0.0031
     13 C         140.0308  145.6849  162.6303 C.ar    1  UNL1       -0.0001
     14 C         140.7109  144.4261  163.0806 C.ar    1  UNL1       -0.0010
     15 C         141.3284  143.5047  162.0707 C.ar    1  UNL1        0.0156
     16 H         143.3197  139.0452  157.5704 H       1  UNL1        0.1233
     17 C         142.1965  141.2335  166.9017 C.ar    1  UNL1        0.0536
     18 C         141.0974  140.6727  166.0488 C.ar    1  UNL1        0.0042
     19 C         141.0348  141.0102  164.5886 C.ar    1  UNL1       -0.0038
     20 C         142.0712  141.9084  163.9813 C.ar    1  UNL1       -0.0182
     21 C         143.1703  142.4693  164.8341 C.ar    1  UNL1       -0.0038
     22 C         143.2330  142.1319  166.2943 C.ar    1  UNL1        0.0042
     23 N         141.5591  141.7659  169.3634 N.am    1  UNL1       -0.2761
     24 C         142.2592  140.8960  168.3619 C.2     1  UNL1        0.2490
     25 O         143.0221  139.6886  168.8205 O.2     1  UNL1       -0.2699
     26 C         140.6647  140.4299  171.4044 C.3     1  UNL1        0.0233
     27 C         141.6218  141.4284  170.8236 C.3     1  UNL1        0.0938
     28 C         140.7962  142.9733  168.9047 C.3     1  UNL1        0.0938
     29 C         140.3713  144.0139  169.8980 C.3     1  UNL1        0.0233
@<TRIPOS>BOND
     1    26    27    1
     2    27    23    1
     3    23    28    1
     4    28    29    1
     5    23    24   am
     6    24    25    2
     7    24    17    1
     8    17    18   ar
     9    18    19   ar
    10    19    20   ar
    11    20     1    1
    12     1     2    1
    13     2     3    1
    14     3     4    1
    15     4     5    1
    16     5     6    1
    17     6     7    1
    18     7     8    1
    19     3     9    1
    20     9    10    1
    21    10    11   ar
    22    11    12   ar
    23    12    13   ar
    24    13    14   ar
    25    14    15   ar
    26    20    21   ar
    27    21    22   ar
    28    22    17   ar
    29    15     1    1
    30     8     3    1
    31    15    10   ar
    32     6    16    1
@<TRIPOS>MOLECULE
*****
 29 32 0 0 0
SMALL
GASTEIGER

@<TRIPOS>ATOM
      1 C         140.2496  142.0408  162.3761 C.3     1  UNL1        0.0510
      2 C         140.5897  143.1674  161.4459 C.3     1  UNL1        0.0489
      3 C         139.9929  143.2105  160.0704 C.3     1  UNL1        0.1364
      4 C         140.9297  144.2940  160.5158 C.3     1  UNL1        0.0571
      5 C         141.2698  145.4205  159.5856 C.3     1  UNL1        0.0722
      6 N         140.6730  145.4636  158.2101 N.3     1  UNL1       -0.2973
      7 C         139.7362  144.3801  157.7648 C.3     1  UNL1        0.0722
      8 C         139.3962  143.2535  158.6949 C.3     1  UNL1        0.0571
      9 O         139.0561  142.1269  159.6251 O.3     1  UNL1       -0.4828
     10 C         138.7161  141.0004  160.5552 C.ar    1  UNL1        0.1345
     11 C         137.7792  139.9168  160.1099 C.ar    1  UNL1        0.0366
     12 C         137.4392  138.7902  161.0400 C.ar    1  UNL1        0.0031
     13 C         138.0359  138.7472  162.4155 C.ar    1  UNL1       -0.0001
     14 C         138.9727  139.8307  162.8609 C.ar    1  UNL1       -0.0010
     15 C         139.3128  140.9573  161.9307 C.ar    1  UNL1        0.0156
     16 H         141.4517  145.4687  157.5513 H       1  UNL1        0.1233
     17 C         142.0399  141.9116  166.5026 C.ar    1  UNL1        0.0536
     18 C         140.8181  142.7413  166.2408 C.ar    1  UNL1        0.0042
     19 C         140.2213  142.7844  164.8653 C.ar    1  UNL1       -0.0038
     20 C         140.8464  141.9977  163.7516 C.ar    1  UNL1       -0.0182
     21 C         142.0683  141.1680  164.0134 C.ar    1  UNL1       -0.0038
     22 C         142.6651  141.1249  165.3889 C.ar    1  UNL1        0.0042
     23 N         142.1162  140.8926  168.8913 N.am    1  UNL1       -0.2761
     24 C         142.6367  141.8686  167.8781 C.2     1  UNL1        0.2490
     25 O         143.7540  142.8016  168.2404 O.2     1  UNL1       -0.2699
     26 C         141.8391  141.0469  171.4699 C.3     1  UNL1        0.0233
     27 C         142.7130  140.8496  170.2668 C.3     1  UNL1        0.0938
     28 C         140.9989  139.9597  168.5289 C.3     1  UNL1        0.0938
     29 C         139.5784  140.3403  168.8243 C.3     1  UNL1        0.0233
@<TRIPOS>BOND
     1    26    27    1
     2    27    23    1
     3    23    28    1
     4    28    29    1
     5    23    24   am
     6    24    25    2
     7    24    17    1
     8    17    18   ar
     9    18    19   ar
    10    19    20   ar
    11    20     1    1
    12     1     2    1
    13     2     3    1
    14     3     4    1
    15     4     5    1
    16     5     6    1
    17     6     7    1
    18     7     8    1
    19     3     9    1
    20     9    10    1
    21    10    11   ar
    22    11    12   ar
    23    12    13   ar
    24    13    14   ar
    25    14    15   ar
    26    20    21   ar
    27    21    22   ar
    28    22    17   ar
    29    15     1    1
    30     8     3    1
    31    15    10   ar
    32     6    16    1
@<TRIPOS>MOLECULE
*****
 29 32 0 0 0
SMALL
GASTEIGER

@<TRIPOS>ATOM
      1 C         140.2819  140.3640  162.4582 C.3     1  UNL1        0.0510
      2 C         140.2997  141.8634  162.4999 C.3     1  UNL1        0.0489
      3 C         139.6916  142.5885  163.6637 C.3     1  UNL1        0.1364
      4 C         140.3175  143.3627  162.5417 C.3     1  UNL1        0.0571
      5 C         140.3352  144.8620  162.5836 C.3     1  UNL1        0.0722
      6 N         139.7271  145.5871  163.7474 N.3     1  UNL1       -0.2973
      7 C         139.1012  144.8129  164.8693 C.3     1  UNL1        0.0722
      8 C         139.0835  143.3136  164.8275 C.3     1  UNL1        0.0571
      9 O         139.0657  141.8143  164.7857 O.3     1  UNL1       -0.4828
     10 C         139.0479  140.3150  164.7439 C.ar    1  UNL1        0.1345
     11 C         138.4220  139.5407  165.8660 C.ar    1  UNL1        0.0366
     12 C         138.4042  138.0414  165.8241 C.ar    1  UNL1        0.0031
     13 C         139.0123  137.3163  164.6603 C.ar    1  UNL1       -0.0001
     14 C         139.6382  138.0905  163.5384 C.ar    1  UNL1       -0.0010
     15 C         139.6560  139.5899  163.5801 C.ar    1  UNL1        0.0156
     16 H         139.0013  146.1954  163.3686 H       1  UNL1        0.1233
     17 C         142.1062  138.1887  158.9668 C.ar    1  UNL1        0.0536
     18 C         140.6491  138.5443  158.9505 C.ar    1  UNL1        0.0042
     19 C         140.0410  139.2694  160.1143 C.ar    1  UNL1       -0.0038
     20 C         140.8900  139.6389  161.2944 C.ar    1  UNL1       -0.0182
     21 C         142.3472  139.2834  161.3106 C.ar    1  UNL1       -0.0038
     22 C         142.9553  138.5583  160.1468 C.ar    1  UNL1        0.0042
     23 N         143.1923  138.2325  156.6070 N.am    1  UNL1       -0.2761
     24 C         142.7143  137.4636  157.8030 C.2     1  UNL1        0.2490
     25 O         142.8444  135.9696  157.8352 O.2     1  UNL1       -0.2699
     26 C         142.9229  136.7569  154.4856 C.3     1  UNL1        0.0233
     27 C         143.8004  137.5074  155.4432 C.3     1  UNL1        0.0938
     28 C         143.0621  139.7265  156.5748 C.3     1  UNL1        0.0938
     29 C         144.1690  140.5874  157.1073 C.3     1  UNL1        0.0233
@<TRIPOS>BOND
     1    26    27    1
     2    27    23    1
     3    23    28    1
     4    28    29    1
     5    23    24   am
     6    24    25    2
     7    24    17    1
     8    17    18   ar
     9    18    19   ar
    10    19    20   ar
    11    20     1    1
    12     1     2    1
    13     2     3    1
    14     3     4    1
    15     4     5    1
    16     5     6    1
    17     6     7    1
    18     7     8    1
    19     3     9    1
    20     9    10    1
    21    10    11   ar
    22    11    12   ar
    23    12    13   ar
    24    13    14   ar
    25    14    15   ar
    26    20    21   ar
    27    21    22   ar
    28    22    17   ar
    29    15     1    1
    30     8     3    1
    31    15    10   ar
    32     6    16    1
@<TRIPOS>MOLECULE
*****
 29 32 0 0 0
SMALL
GASTEIGER

@<TRIPOS>ATOM
      1 C         140.3991  142.3889  161.4657 C.3     1  UNL1        0.0510
      2 C         141.8744  142.1192  161.4953 C.3     1  UNL1        0.0489
      3 C         142.6935  142.5582  162.6727 C.3     1  UNL1        0.1364
      4 C         143.3496  141.8496  161.5249 C.3     1  UNL1        0.0571
      5 C         144.8249  141.5800  161.5546 C.3     1  UNL1        0.0722
      6 N         145.6440  142.0189  162.7320 N.3     1  UNL1       -0.2973
      7 C         144.9879  142.7275  163.8798 C.3     1  UNL1        0.0722
      8 C         143.5127  142.9971  163.8501 C.3     1  UNL1        0.0571
      9 O         142.0374  143.2668  163.8205 O.3     1  UNL1       -0.4828
     10 C         140.5621  143.5364  163.7909 C.ar    1  UNL1        0.1345
     11 C         139.9060  144.2450  164.9387 C.ar    1  UNL1        0.0366
     12 C         138.4307  144.5146  164.9090 C.ar    1  UNL1        0.0031
     13 C         137.6116  144.0757  163.7316 C.ar    1  UNL1       -0.0001
     14 C         138.2677  143.3671  162.5838 C.ar    1  UNL1       -0.0010
     15 C         139.7430  143.0975  162.6134 C.ar    1  UNL1        0.0156
     16 H         146.3645  142.6451  162.3724 H       1  UNL1        0.1233
     17 C         137.9416  141.0721  157.9334 C.ar    1  UNL1        0.0536
     18 C         138.3892  142.4994  158.0454 C.ar    1  UNL1        0.0042
     19 C         139.2084  142.9383  159.2228 C.ar    1  UNL1       -0.0038
     20 C         139.5799  141.9500  160.2882 C.ar    1  UNL1       -0.0182
     21 C         139.1323  140.5227  160.1762 C.ar    1  UNL1       -0.0038
     22 C         138.3132  140.0837  158.9988 C.ar    1  UNL1        0.0042
     23 N         137.7998  140.2264  155.4809 N.am    1  UNL1       -0.2761
     24 C         137.1225  140.6332  156.7560 C.2     1  UNL1        0.2490
     25 O         135.6259  140.6011  156.8536 O.2     1  UNL1       -0.2699
     26 C         136.5456  138.3569  154.1840 C.3     1  UNL1        0.0233
     27 C         136.9806  139.7875  154.3035 C.3     1  UNL1        0.0938
     28 C         139.2963  140.2585  155.3833 C.3     1  UNL1        0.0938
     29 C         140.0950  139.0286  155.6982 C.3     1  UNL1        0.0233
@<TRIPOS>BOND
     1    26    27    1
     2    27    23    1
     3    23    28    1
     4    28    29    1
     5    23    24   am
     6    24    25    2
     7    24    17    1
     8    17    18   ar
     9    18    19   ar
    10    19    20   ar
    11    20     1    1
    12     1     2    1
    13     2     3    1
    14     3     4    1
    15     4     5    1
    16     5     6    1
    17     6     7    1
    18     7     8    1
    19     3     9    1
    20     9    10    1
    21    10    11   ar
    22    11    12   ar
    23    12    13   ar
    24    13    14   ar
    25    14    15   ar
    26    20    21   ar
    27    21    22   ar
    28    22    17   ar
    29    15     1    1
    30     8     3    1
    31    15    10   ar
    32     6    16    1
@<TRIPOS>MOLECULE
*****
 29 32 0 0 0
SMALL
GASTEIGER

@<TRIPOS>ATOM
      1 C         140.4190  140.9351  163.4695 C.3     1  UNL1        0.0510
      2 C         141.2895  140.0836  164.3454 C.3     1  UNL1        0.0489
      3 C         141.5376  140.4816  165.7702 C.3     1  UNL1        0.1364
      4 C         142.1600  139.2321  165.2213 C.3     1  UNL1        0.0571
      5 C         143.0304  138.3807  166.0972 C.3     1  UNL1        0.0722
      6 N         143.2785  138.7787  167.5220 N.3     1  UNL1       -0.2973
      7 C         142.6561  140.0282  168.0709 C.3     1  UNL1        0.0722
      8 C         141.7856  140.8797  167.1950 C.3     1  UNL1        0.0571
      9 O         140.9151  141.7312  166.3191 O.3     1  UNL1       -0.4828
     10 C         140.0447  142.5827  165.4431 C.ar    1  UNL1        0.1345
     11 C         139.4222  143.8323  165.9920 C.ar    1  UNL1        0.0366
     12 C         138.5518  144.6837  165.1161 C.ar    1  UNL1        0.0031
     13 C         138.3037  144.2857  163.6913 C.ar    1  UNL1       -0.0001
     14 C         138.9261  143.0362  163.1424 C.ar    1  UNL1       -0.0010
     15 C         139.7966  142.1846  164.0183 C.ar    1  UNL1        0.0156
     16 H         144.2878  138.8816  167.6275 H       1  UNL1        0.1233
     17 C         139.6749  139.7410  159.1951 C.ar    1  UNL1        0.0536
     18 C         140.6447  140.8416  159.5084 C.ar    1  UNL1        0.0042
     19 C         140.8927  141.2396  160.9332 C.ar    1  UNL1       -0.0038
     20 C         140.1710  140.5371  162.0447 C.ar    1  UNL1       -0.0182
     21 C         139.2011  139.4364  161.7314 C.ar    1  UNL1       -0.0038
     22 C         138.9531  139.0384  160.3066 C.ar    1  UNL1        0.0042
     23 N         140.3900  138.4331  157.0672 N.am    1  UNL1       -0.2761
     24 C         139.4268  139.3430  157.7703 C.2     1  UNL1        0.2490
     25 O         138.2155  139.8548  157.0486 O.2     1  UNL1       -0.2699
     26 C         139.1922  136.9166  155.3306 C.3     1  UNL1        0.0233
     27 C         140.1420  138.0351  155.6424 C.3     1  UNL1        0.0938
     28 C         141.6013  137.9212  157.7889 C.3     1  UNL1        0.0938
     29 C         142.5135  136.9371  157.1187 C.3     1  UNL1        0.0233
@<TRIPOS>BOND
     1    26    27    1
     2    27    23    1
     3    23    28    1
     4    28    29    1
     5    23    24   am
     6    24    25    2
     7    24    17    1
     8    17    18   ar
     9    18    19   ar
    10    19    20   ar
    11    20     1    1
    12     1     2    1
    13     2     3    1
    14     3     4    1
    15     4     5    1
    16     5     6    1
    17     6     7    1
    18     7     8    1
    19     3     9    1
    20     9    10    1
    21    10    11   ar
    22    11    12   ar
    23    12    13   ar
    24    13    14   ar
    25    14    15   ar
    26    20    21   ar
    27    21    22   ar
    28    22    17   ar
    29    15     1    1
    30     8     3    1
    31    15    10   ar
    32     6    16    1
@<TRIPOS>MOLECULE
*****
 29 32 0 0 0
SMALL
GASTEIGER

@<TRIPOS>ATOM
      1 C         141.0782  140.1745  161.5417 C.3     1  UNL1        0.0510
      2 C         142.4186  140.8461  161.5903 C.3     1  UNL1        0.0489
      3 C         143.3310  140.6157  162.7584 C.3     1  UNL1        0.1364
      4 C         143.7590  141.5176  161.6389 C.3     1  UNL1        0.0571
      5 C         145.0994  142.1891  161.6876 C.3     1  UNL1        0.0722
      6 N         146.0117  141.9587  162.8557 N.3     1  UNL1       -0.2973
      7 C         145.5837  141.0568  163.9752 C.3     1  UNL1        0.0722
      8 C         144.2433  140.3853  163.9265 C.3     1  UNL1        0.0571
      9 O         142.9029  139.7137  163.8779 O.3     1  UNL1       -0.4828
     10 C         141.5625  139.0422  163.8293 C.ar    1  UNL1        0.1345
     11 C         141.1344  138.1402  164.9488 C.ar    1  UNL1        0.0366
     12 C         139.7941  137.4686  164.9001 C.ar    1  UNL1        0.0031
     13 C         138.8817  137.6991  163.7320 C.ar    1  UNL1       -0.0001
     14 C         139.3097  138.6010  162.6125 C.ar    1  UNL1       -0.0010
     15 C         140.6502  139.2726  162.6611 C.ar    1  UNL1        0.0156
     16 H         146.1979  142.8726  163.2687 H       1  UNL1        0.1233
     17 C         138.3411  140.8657  158.0373 C.ar    1  UNL1        0.0536
     18 C         138.3566  141.8374  159.1799 C.ar    1  UNL1        0.0042
     19 C         139.2690  141.6070  160.3480 C.ar    1  UNL1       -0.0038
     20 C         140.1658  140.4049  160.3735 C.ar    1  UNL1       -0.0182
     21 C         140.1503  139.4332  159.2309 C.ar    1  UNL1       -0.0038
     22 C         139.2380  139.6636  158.0628 C.ar    1  UNL1        0.0042
     23 N         137.9046  141.8945  155.6919 N.am    1  UNL1       -0.2761
     24 C         137.4288  141.0962  156.8692 C.2     1  UNL1        0.2490
     25 O         136.0404  140.5282  156.8784 O.2     1  UNL1       -0.2699
     26 C         136.6990  143.5228  154.0655 C.3     1  UNL1        0.0233
     27 C         136.9923  142.1249  154.5237 C.3     1  UNL1        0.0938
     28 C         139.2930  142.4625  155.6826 C.3     1  UNL1        0.0938
     29 C         140.2784  142.0178  154.6429 C.3     1  UNL1        0.0233
@<TRIPOS>BOND
     1    26    27    1
     2    27    23    1
     3    23    28    1
     4    28    29    1
     5    23    24   am
     6    24    25    2
     7    24    17    1
     8    17    18   ar
     9    18    19   ar
    10    19    20   ar
    11    20     1    1
    12     1     2    1
    13     2     3    1
    14     3     4    1
    15     4     5    1
    16     5     6    1
    17     6     7    1
    18     7     8    1
    19     3     9    1
    20     9    10    1
    21    10    11   ar
    22    11    12   ar
    23    12    13   ar
    24    13    14   ar
    25    14    15   ar
    26    20    21   ar
    27    21    22   ar
    28    22    17   ar
    29    15     1    1
    30     8     3    1
    31    15    10   ar
    32     6    16    1
