@<TRIPOS>MOLECULE
*****
 17 19 0 0 0
SMALL
GASTEIGER

@<TRIPOS>ATOM
      1 C         141.9833  141.0790  165.5515 C.3     1  UNL1        0.0332
      2 C         140.7587  140.4457  166.1426 C.ar    1  UNL1        0.0017
      3 C         139.8266  139.6577  165.2706 C.ar    1  UNL1        0.0549
      4 CL        140.1191  139.5031  163.8074 Cl      1  UNL1       -0.0825
      5 C         138.6020  139.0244  165.8616 C.ar    1  UNL1        0.0108
      6 C         138.3095  139.1790  167.3246 C.ar    1  UNL1       -0.0021
      7 C         139.2416  139.9670  168.1966 C.ar    1  UNL1       -0.0074
      8 C         140.4662  140.6003  167.6056 C.ar    1  UNL1        0.0406
      9 N         141.1958  141.3136  168.7051 N.pl3   1  UNL1       -0.3082
     10 C         140.4221  141.1211  169.9757 C.3     1  UNL1        0.0928
     11 C         140.9173  141.7285  171.2547 C.3     1  UNL1        0.0889
     12 N         142.1862  142.5284  171.2631 N.3     1  UNL1       -0.2947
     13 C         142.9598  142.7209  169.9925 C.3     1  UNL1        0.0885
     14 C         142.4646  142.1135  168.7135 C.3     1  UNL1        0.0885
     15 C         143.2383  142.3060  167.4429 C.3     1  UNL1        0.0229
     16 C         139.2144  140.2888  169.6614 C.3     1  UNL1        0.0487
     17 H         142.8157  142.0750  171.9253 H       1  UNL1        0.1233
@<TRIPOS>BOND
     1     1     2    1
     2     2     3   ar
     3     3     4    1
     4     3     5   ar
     5     5     6   ar
     6     6     7   ar
     7     7     8   ar
     8     8     9    1
     9     9    10    1
    10    10    11    1
    11    11    12    1
    12    12    13    1
    13    13    14    1
    14    14    15    1
    15    10    16    1
    16     8     2   ar
    17    14     9    1
    18    16     7    1
    19    12    17    1
@<TRIPOS>MOLECULE
*****
 17 19 0 0 0
SMALL
GASTEIGER

@<TRIPOS>ATOM
      1 C         139.1676  137.7591  164.6147 C.3     1  UNL1        0.0332
      2 C         139.7252  138.6943  165.6466 C.ar    1  UNL1        0.0017
      3 C         138.8956  139.0804  166.8352 C.ar    1  UNL1        0.0549
      4 CL        137.5085  138.5313  166.9919 Cl      1  UNL1       -0.0825
      5 C         139.4531  140.0155  167.8670 C.ar    1  UNL1        0.0108
      6 C         140.8401  140.5645  167.7103 C.ar    1  UNL1       -0.0021
      7 C         141.6697  140.1785  166.5217 C.ar    1  UNL1       -0.0074
      8 C         141.1122  139.2433  165.4898 C.ar    1  UNL1        0.0406
      9 N         142.1571  139.0438  164.4322 N.pl3   1  UNL1       -0.3082
     10 C         143.3603  139.8557  164.8104 C.3     1  UNL1        0.0928
     11 C         144.5748  139.8515  163.9301 C.3     1  UNL1        0.0889
     12 N         144.5860  139.0355  162.6716 N.3     1  UNL1       -0.2947
     13 C         143.3827  138.2236  162.2934 C.3     1  UNL1        0.0885
     14 C         142.1683  138.2278  163.1737 C.3     1  UNL1        0.0885
     15 C         140.9650  137.4160  162.7955 C.3     1  UNL1        0.0229
     16 C         143.0591  140.5569  166.1018 C.3     1  UNL1        0.0487
     17 H         145.3676  138.3848  162.7495 H       1  UNL1        0.1233
@<TRIPOS>BOND
     1     1     2    1
     2     2     3   ar
     3     3     4    1
     4     3     5   ar
     5     5     6   ar
     6     6     7   ar
     7     7     8   ar
     8     8     9    1
     9     9    10    1
    10    10    11    1
    11    11    12    1
    12    12    13    1
    13    13    14    1
    14    14    15    1
    15    10    16    1
    16     8     2   ar
    17    14     9    1
    18    16     7    1
    19    12    17    1
@<TRIPOS>MOLECULE
*****
 17 19 0 0 0
SMALL
GASTEIGER

@<TRIPOS>ATOM
      1 C         143.2231  139.3722  166.1543 C.3     1  UNL1        0.0332
      2 C         141.8459  139.5128  166.7321 C.ar    1  UNL1        0.0017
      3 C         141.6690  140.0080  168.1370 C.ar    1  UNL1        0.0549
      4 CL        142.8693  140.3627  168.9639 Cl      1  UNL1       -0.0825
      5 C         140.2920  140.1487  168.7148 C.ar    1  UNL1        0.0108
      6 C         139.0918  139.7940  167.8879 C.ar    1  UNL1       -0.0021
      7 C         139.2687  139.2988  166.4831 C.ar    1  UNL1       -0.0074
      8 C         140.6458  139.1582  165.9052 C.ar    1  UNL1        0.0406
      9 N         140.5095  138.6481  164.5012 N.pl3   1  UNL1       -0.3082
     10 C         139.0482  138.4735  164.2113 C.3     1  UNL1        0.0928
     11 C         138.6045  137.9708  162.8695 C.3     1  UNL1        0.0889
     12 N         139.6223  137.6428  161.8176 N.3     1  UNL1       -0.2947
     13 C         141.0836  137.8175  162.1074 C.3     1  UNL1        0.0885
     14 C         141.5272  138.3201  163.4493 C.3     1  UNL1        0.0885
     15 C         142.9885  138.4948  163.7391 C.3     1  UNL1        0.0229
     16 C         138.2813  138.8756  165.4362 C.3     1  UNL1        0.0487
     17 H         139.4102  138.2286  161.0099 H       1  UNL1        0.1233
@<TRIPOS>BOND
     1     1     2    1
     2     2     3   ar
     3     3     4    1
     4     3     5   ar
     5     5     6   ar
     6     6     7   ar
     7     7     8   ar
     8     8     9    1
     9     9    10    1
    10    10    11    1
    11    11    12    1
    12    12    13    1
    13    13    14    1
    14    14    15    1
    15    10    16    1
    16     8     2   ar
    17    14     9    1
    18    16     7    1
    19    12    17    1
@<TRIPOS>MOLECULE
*****
 17 19 0 0 0
SMALL
GASTEIGER

@<TRIPOS>ATOM
      1 C         144.9189  139.8177  164.5225 C.3     1  UNL1        0.0332
      2 C         143.6838  140.1422  165.3096 C.ar    1  UNL1        0.0017
      3 C         143.1556  139.1616  166.3143 C.ar    1  UNL1        0.0549
      4 CL        143.8624  137.8565  166.5320 Cl      1  UNL1       -0.0825
      5 C         141.9206  139.4860  167.1014 C.ar    1  UNL1        0.0108
      6 C         141.2138  140.7910  166.8837 C.ar    1  UNL1       -0.0021
      7 C         141.7421  141.7716  165.8790 C.ar    1  UNL1       -0.0074
      8 C         142.9771  141.4472  165.0919 C.ar    1  UNL1        0.0406
      9 N         143.2607  142.6019  164.1775 N.pl3   1  UNL1       -0.3082
     10 C         142.2010  143.6400  164.3994 C.3     1  UNL1        0.0928
     11 C         142.2275  144.9184  163.6153 C.3     1  UNL1        0.0889
     12 N         143.3139  145.1587  162.6092 N.3     1  UNL1       -0.2947
     13 C         144.3736  144.1206  162.3873 C.3     1  UNL1        0.0885
     14 C         144.3470  142.8422  163.1715 C.3     1  UNL1        0.0885
     15 C         145.4068  141.8041  162.9495 C.3     1  UNL1        0.0229
     16 C         141.2624  143.1269  165.4510 C.3     1  UNL1        0.0487
     17 H         143.7935  146.0133  162.8922 H       1  UNL1        0.1233
@<TRIPOS>BOND
     1     1     2    1
     2     2     3   ar
     3     3     4    1
     4     3     5   ar
     5     5     6   ar
     6     6     7   ar
     7     7     8   ar
     8     8     9    1
     9     9    10    1
    10    10    11    1
    11    11    12    1
    12    12    13    1
    13    13    14    1
    14    14    15    1
    15    10    16    1
    16     8     2   ar
    17    14     9    1
    18    16     7    1
    19    12    17    1
@<TRIPOS>MOLECULE
*****
 17 19 0 0 0
SMALL
GASTEIGER

@<TRIPOS>ATOM
      1 C         139.8068  140.4247  165.8196 C.3     1  UNL1        0.0332
      2 C         141.0901  141.1883  165.9622 C.ar    1  UNL1        0.0017
      3 C         141.8002  141.6959  164.7423 C.ar    1  UNL1        0.0549
      4 CL        141.2272  141.4400  163.3799 Cl      1  UNL1       -0.0825
      5 C         143.0834  142.4595  164.8849 C.ar    1  UNL1        0.0108
      6 C         143.6564  142.7155  166.2473 C.ar    1  UNL1       -0.0021
      7 C         142.9463  142.2078  167.4671 C.ar    1  UNL1       -0.0074
      8 C         141.6631  141.4442  167.3246 C.ar    1  UNL1        0.0406
      9 N         141.1912  141.0700  168.6984 N.pl3   1  UNL1       -0.3082
     10 C         142.1828  141.6024  169.6900 C.3     1  UNL1        0.0928
     11 C         141.9700  141.3781  171.1578 C.3     1  UNL1        0.0889
     12 N         140.7655  140.6214  171.6338 N.3     1  UNL1       -0.2947
     13 C         139.7739  140.0890  170.6422 C.3     1  UNL1        0.0885
     14 C         139.9868  140.3134  169.1745 C.3     1  UNL1        0.0885
     15 C         138.9952  139.7810  168.1828 C.3     1  UNL1        0.0229
     16 C         143.2675  142.3056  168.9290 C.3     1  UNL1        0.0487
     17 H         140.2529  141.2456  172.2567 H       1  UNL1        0.1233
@<TRIPOS>BOND
     1     1     2    1
     2     2     3   ar
     3     3     4    1
     4     3     5   ar
     5     5     6   ar
     6     6     7   ar
     7     7     8   ar
     8     8     9    1
     9     9    10    1
    10    10    11    1
    11    11    12    1
    12    12    13    1
    13    13    14    1
    14    14    15    1
    15    10    16    1
    16     8     2   ar
    17    14     9    1
    18    16     7    1
    19    12    17    1
@<TRIPOS>MOLECULE
*****
 17 19 0 0 0
SMALL
GASTEIGER

@<TRIPOS>ATOM
      1 C         137.6170  141.4689  164.3845 C.3     1  UNL1        0.0332
      2 C         138.9231  141.2529  165.0899 C.ar    1  UNL1        0.0017
      3 C         139.1059  140.0604  165.9814 C.ar    1  UNL1        0.0549
      4 CL        137.9825  139.0839  166.1673 Cl      1  UNL1       -0.0825
      5 C         140.4119  139.8444  166.6868 C.ar    1  UNL1        0.0108
      6 C         141.5352  140.8209  166.5008 C.ar    1  UNL1       -0.0021
      7 C         141.3525  142.0134  165.6094 C.ar    1  UNL1       -0.0074
      8 C         140.0465  142.2294  164.9039 C.ar    1  UNL1        0.0406
      9 N         140.1593  143.4871  164.0943 N.pl3   1  UNL1       -0.3082
     10 C         141.5351  144.0485  164.2994 C.3     1  UNL1        0.0928
     11 C         141.9387  145.3164  163.6071 C.3     1  UNL1        0.0889
     12 N         140.9665  146.0230  162.7097 N.3     1  UNL1       -0.2947
     13 C         139.5907  145.4617  162.5046 C.3     1  UNL1        0.0885
     14 C         139.1871  144.1937  163.1969 C.3     1  UNL1        0.0885
     15 C         137.8113  143.6324  162.9918 C.3     1  UNL1        0.0229
     16 C         142.2725  143.1377  165.2358 C.3     1  UNL1        0.0487
     17 H         141.4022  146.0783  161.7891 H       1  UNL1        0.1233
@<TRIPOS>BOND
     1     1     2    1
     2     2     3   ar
     3     3     4    1
     4     3     5   ar
     5     5     6   ar
     6     6     7   ar
     7     7     8   ar
     8     8     9    1
     9     9    10    1
    10    10    11    1
    11    11    12    1
    12    12    13    1
    13    13    14    1
    14    14    15    1
    15    10    16    1
    16     8     2   ar
    17    14     9    1
    18    16     7    1
    19    12    17    1
@<TRIPOS>MOLECULE
*****
 17 19 0 0 0
SMALL
GASTEIGER

@<TRIPOS>ATOM
      1 C         141.5296  137.7666  164.7119 C.3     1  UNL1        0.0332
      2 C         141.4661  139.0726  165.4472 C.ar    1  UNL1        0.0017
      3 C         142.4353  139.3568  166.5562 C.ar    1  UNL1        0.0549
      4 CL        143.4679  138.3350  166.9301 Cl      1  UNL1       -0.0825
      5 C         142.3718  140.6627  167.2915 C.ar    1  UNL1        0.0108
      6 C         141.3392  141.6844  166.9176 C.ar    1  UNL1       -0.0021
      7 C         140.3701  141.4002  165.8086 C.ar    1  UNL1       -0.0074
      8 C         140.4335  140.0943  165.0733 C.ar    1  UNL1        0.0406
      9 N         139.3540  140.0957  164.0319 N.pl3   1  UNL1       -0.3082
     10 C         138.6233  141.4025  164.1234 C.3     1  UNL1        0.0928
     11 C         137.4806  141.6895  163.1951 C.3     1  UNL1        0.0889
     12 N         137.0685  140.6697  162.1753 N.3     1  UNL1       -0.2947
     13 C         137.7992  139.3629  162.0837 C.3     1  UNL1        0.0885
     14 C         138.9419  139.0759  163.0120 C.3     1  UNL1        0.0885
     15 C         139.6726  137.7691  162.9205 C.3     1  UNL1        0.0229
     16 C         139.2513  142.2087  165.2215 C.3     1  UNL1        0.0487
     17 H         137.1496  141.1169  161.2622 H       1  UNL1        0.1233
@<TRIPOS>BOND
     1     1     2    1
     2     2     3   ar
     3     3     4    1
     4     3     5   ar
     5     5     6   ar
     6     6     7   ar
     7     7     8   ar
     8     8     9    1
     9     9    10    1
    10    10    11    1
    11    11    12    1
    12    12    13    1
    13    13    14    1
    14    14    15    1
    15    10    16    1
    16     8     2   ar
    17    14     9    1
    18    16     7    1
    19    12    17    1
@<TRIPOS>MOLECULE
*****
 17 19 0 0 0
SMALL
GASTEIGER

@<TRIPOS>ATOM
      1 C         140.2138  143.1269  166.5958 C.3     1  UNL1        0.0332
      2 C         140.9365  141.8862  166.1615 C.ar    1  UNL1        0.0017
      3 C         140.9965  141.5234  164.7073 C.ar    1  UNL1        0.0549
      4 CL        140.3337  142.4012  163.6873 Cl      1  UNL1       -0.0825
      5 C         141.7192  140.2828  164.2730 C.ar    1  UNL1        0.0108
      6 C         142.3820  139.4051  165.2929 C.ar    1  UNL1       -0.0021
      7 C         142.3220  139.7679  166.7471 C.ar    1  UNL1       -0.0074
      8 C         141.5993  141.0085  167.1814 C.ar    1  UNL1        0.0406
      9 N         141.7070  141.1092  168.6742 N.pl3   1  UNL1       -0.3082
     10 C         142.4962  139.9308  169.1625 C.3     1  UNL1        0.0928
     11 C         142.7668  139.7648  170.6285 C.3     1  UNL1        0.0889
     12 N         142.2481  140.7772  171.6062 N.3     1  UNL1       -0.2947
     13 C         141.4589  141.9556  171.1179 C.3     1  UNL1        0.0885
     14 C         141.1883  142.1216  169.6519 C.3     1  UNL1        0.0885
     15 C         140.3990  143.3000  169.1636 C.3     1  UNL1        0.0229
     16 C         142.8763  139.1019  167.9715 C.3     1  UNL1        0.0487
     17 H         143.0581  141.1501  172.1014 H       1  UNL1        0.1233
@<TRIPOS>BOND
     1     1     2    1
     2     2     3   ar
     3     3     4    1
     4     3     5   ar
     5     5     6   ar
     6     6     7   ar
     7     7     8   ar
     8     8     9    1
     9     9    10    1
    10    10    11    1
    11    11    12    1
    12    12    13    1
    13    13    14    1
    14    14    15    1
    15    10    16    1
    16     8     2   ar
    17    14     9    1
    18    16     7    1
    19    12    17    1
@<TRIPOS>MOLECULE
*****
 17 19 0 0 0
SMALL
GASTEIGER

@<TRIPOS>ATOM
      1 C         140.2200  141.4838  166.0017 C.3     1  UNL1        0.0332
      2 C         141.4807  142.2360  165.6935 C.ar    1  UNL1        0.0017
      3 C         142.7645  141.8573  166.3707 C.ar    1  UNL1        0.0549
      4 CL        142.7876  140.7264  167.3560 Cl      1  UNL1       -0.0825
      5 C         144.0252  142.6094  166.0626 C.ar    1  UNL1        0.0108
      6 C         144.0022  143.7402  165.0774 C.ar    1  UNL1       -0.0021
      7 C         142.7184  144.1189  164.4003 C.ar    1  UNL1       -0.0074
      8 C         141.4577  143.3668  164.7083 C.ar    1  UNL1        0.0406
      9 N         140.3505  143.9633  163.8908 N.pl3   1  UNL1       -0.3082
     10 C         140.9270  145.0840  163.0774 C.3     1  UNL1        0.0928
     11 C         140.0448  145.8722  162.1551 C.3     1  UNL1        0.0889
     12 N         138.5863  145.5396  162.0462 N.3     1  UNL1       -0.2947
     13 C         138.0098  144.4188  162.8596 C.3     1  UNL1        0.0885
     14 C         138.8920  143.6306  163.7818 C.3     1  UNL1        0.0885
     15 C         138.3155  142.5099  164.5952 C.3     1  UNL1        0.0229
     16 C         142.3904  145.1802  163.3923 C.3     1  UNL1        0.0487
     17 H         138.4078  145.3151  161.0673 H       1  UNL1        0.1233
@<TRIPOS>BOND
     1     1     2    1
     2     2     3   ar
     3     3     4    1
     4     3     5   ar
     5     5     6   ar
     6     6     7   ar
     7     7     8   ar
     8     8     9    1
     9     9    10    1
    10    10    11    1
    11    11    12    1
    12    12    13    1
    13    13    14    1
    14    14    15    1
    15    10    16    1
    16     8     2   ar
    17    14     9    1
    18    16     7    1
    19    12    17    1
