@<TRIPOS>MOLECULE
*****
 32 35 0 0 0
SMALL
GASTEIGER

@<TRIPOS>ATOM
      1 C         140.3562  139.1228  160.0175 C.3     1  UNL1        0.1106
      2 C         139.7682  138.7019  158.7033 C.3     1  UNL1        0.0400
      3 C         140.6257  138.0105  157.6850 C.3     1  UNL1        0.0743
      4 N         142.0711  137.7401  157.9810 N.3     1  UNL1       -0.2648
      5 C         142.6591  138.1611  159.2952 C.3     1  UNL1        0.1098
      6 C         141.8016  138.8524  160.3134 C.3     1  UNL1        0.1948
      7 F         142.3896  139.2733  161.6277 F       1  UNL1       -0.2340
      8 C         139.1156  141.2514  160.8422 C.3     1  UNL1        0.1149
      9 N         139.4987  139.8142  161.0358 N.am    1  UNL1       -0.2763
     10 C         139.0245  139.0682  162.2477 C.2     1  UNL1        0.2301
     11 O         139.4078  137.6309  162.4413 O.2     1  UNL1       -0.2745
     12 C         138.1671  139.7595  163.2660 C.3     1  UNL1        0.1116
     13 C         138.6366  139.8779  164.6857 C.ar    1  UNL1       -0.0130
     14 C         139.7035  140.8699  165.0426 C.ar    1  UNL1       -0.0025
     15 C         140.1730  140.9883  166.4623 C.ar    1  UNL1        0.0180
     16 C         139.5755  140.1147  167.5251 C.ar    1  UNL1        0.1057
     17 C         138.5085  139.1227  167.1683 C.ar    1  UNL1        0.0180
     18 C         138.0390  139.0043  165.7486 C.ar    1  UNL1       -0.0025
     19 S         140.0449  140.2331  168.9448 S.O2    1  UNL1        0.0104
     20 C         140.5144  140.3515  170.3646 C.3     1  UNL1        0.1816
     21 O         138.7013  139.7730  169.4275 O.2     1  UNL1       -0.1686
     22 O         141.3886  140.6932  168.4622 O.2     1  UNL1       -0.1686
     23 C         142.9286  137.0488  156.9628 C.3     1  UNL1        0.1256
     24 C         142.7135  135.5947  156.6641 C.ar    1  UNL1        0.1044
     25 N         141.7241  135.0322  155.6869 N.ar    1  UNL1       -0.2413
     26 C         141.8492  133.5376  155.7090 C.ar    1  UNL1        0.0875
     27 C         141.1296  132.4589  154.9550 C.ar    1  UNL1        0.0196
     28 C         141.4767  131.0190  155.1917 C.ar    1  UNL1        0.0016
     29 C         142.5434  130.6577  156.1825 C.ar    1  UNL1        0.0006
     30 C         143.2630  131.7364  156.9365 C.ar    1  UNL1        0.0080
     31 C         142.9159  133.1763  156.6998 C.ar    1  UNL1        0.0482
     32 S         143.4500  134.4477  157.2900 S.2     1  UNL1       -0.0694
@<TRIPOS>BOND
     1     8     9    1
     2     9    10   am
     3    10    11    2
     4    10    12    1
     5    12    13    1
     6    13    14   ar
     7    14    15   ar
     8    15    16   ar
     9    16    19    1
    10    19    20    1
    11    19    21    2
    12    19    22    2
    13    16    17   ar
    14    17    18   ar
    15     1     9    1
    16     1     2    1
    17     2     3    1
    18     3     4    1
    19     4    23    1
    20    23    24    1
    21    24    25   ar
    22    25    26   ar
    23    26    27   ar
    24    27    28   ar
    25    28    29   ar
    26    29    30   ar
    27    30    31   ar
    28    31    32   ar
    29     4     5    1
    30     5     6    1
    31     6     7    1
    32    18    13   ar
    33     6     1    1
    34    32    24   ar
    35    31    26   ar
@<TRIPOS>MOLECULE
*****
 32 35 0 0 0
SMALL
GASTEIGER

@<TRIPOS>ATOM
      1 C         140.3077  139.1902  160.0061 C.3     1  UNL1        0.1106
      2 C         139.7045  138.7537  158.7040 C.3     1  UNL1        0.0400
      3 C         140.5563  138.0739  157.6732 C.3     1  UNL1        0.0743
      4 N         142.0113  137.8306  157.9447 N.3     1  UNL1       -0.2648
      5 C         142.6145  138.2671  159.2469 C.3     1  UNL1        0.1098
      6 C         141.7628  138.9469  160.2775 C.3     1  UNL1        0.1948
      7 F         142.3660  139.3834  161.5797 F       1  UNL1       -0.2340
      8 C         139.0972  141.3177  160.8771 C.3     1  UNL1        0.1149
      9 N         139.4559  139.8700  161.0368 N.am    1  UNL1       -0.2763
     10 C         138.9629  139.1021  162.2273 C.2     1  UNL1        0.2301
     11 O         139.3216  137.6544  162.3870 O.2     1  UNL1       -0.2745
     12 C         138.1111  139.7819  163.2580 C.3     1  UNL1        0.1116
     13 C         138.5942  139.8958  164.6735 C.ar    1  UNL1       -0.0130
     14 C         138.0324  138.9944  165.7326 C.ar    1  UNL1       -0.0025
     15 C         138.5155  139.1084  167.1481 C.ar    1  UNL1        0.0180
     16 C         139.5604  140.1238  167.5045 C.ar    1  UNL1        0.1057
     17 C         140.1222  141.0253  166.4454 C.ar    1  UNL1        0.0180
     18 C         139.6391  140.9113  165.0299 C.ar    1  UNL1       -0.0025
     19 S         140.0435  140.2378  168.9200 S.O2    1  UNL1        0.0104
     20 C         140.5265  140.3518  170.3355 C.3     1  UNL1        0.1816
     21 O         138.6923  139.8145  169.4152 O.2     1  UNL1       -0.1686
     22 O         141.3946  140.6611  168.4248 O.2     1  UNL1       -0.1686
     23 C         142.8631  137.1508  156.9140 C.3     1  UNL1        0.1256
     24 C         142.6735  135.6903  156.6291 C.ar    1  UNL1        0.1044
     25 N         143.3628  134.5582  157.3313 N.ar    1  UNL1       -0.2413
     26 C         142.8766  133.2738  156.7281 C.ar    1  UNL1        0.0875
     27 C         143.2073  131.8399  157.0189 C.ar    1  UNL1        0.0196
     28 C         142.5482  130.7443  156.2345 C.ar    1  UNL1        0.0016
     29 C         141.5585  131.0826  155.1594 C.ar    1  UNL1        0.0006
     30 C         141.2278  132.5165  154.8686 C.ar    1  UNL1        0.0080
     31 C         141.8868  133.6121  155.6529 C.ar    1  UNL1        0.0482
     32 S         141.7613  135.1056  155.5918 S.2     1  UNL1       -0.0694
@<TRIPOS>BOND
     1     8     9    1
     2     9    10   am
     3    10    11    2
     4    10    12    1
     5    12    13    1
     6    13    14   ar
     7    14    15   ar
     8    15    16   ar
     9    16    19    1
    10    19    20    1
    11    19    21    2
    12    19    22    2
    13    16    17   ar
    14    17    18   ar
    15     1     9    1
    16     1     2    1
    17     2     3    1
    18     3     4    1
    19     4    23    1
    20    23    24    1
    21    24    25   ar
    22    25    26   ar
    23    26    27   ar
    24    27    28   ar
    25    28    29   ar
    26    29    30   ar
    27    30    31   ar
    28    31    32   ar
    29     4     5    1
    30     5     6    1
    31     6     7    1
    32    18    13   ar
    33     6     1    1
    34    32    24   ar
    35    31    26   ar
@<TRIPOS>MOLECULE
*****
 32 35 0 0 0
SMALL
GASTEIGER

@<TRIPOS>ATOM
      1 C         140.1875  138.5484  160.8900 C.3     1  UNL1        0.1106
      2 C         139.6738  138.6271  159.4829 C.3     1  UNL1        0.0400
      3 C         140.6029  138.3845  158.3305 C.3     1  UNL1        0.0743
      4 N         142.0458  138.0631  158.5853 N.3     1  UNL1       -0.2648
      5 C         142.5595  137.9844  159.9924 C.3     1  UNL1        0.1098
      6 C         141.6303  138.2270  161.1447 C.3     1  UNL1        0.1948
      7 F         142.1440  138.1482  162.5519 F       1  UNL1       -0.2340
      8 C         138.6078  137.6323  162.7380 C.3     1  UNL1        0.1149
      9 N         139.2583  138.7910  162.0423 N.am    1  UNL1       -0.2763
     10 C         138.9798  140.1924  162.4990 C.2     1  UNL1        0.2301
     11 O         139.6305  141.3512  161.8032 O.2     1  UNL1       -0.2745
     12 C         138.0507  140.4351  163.6513 C.3     1  UNL1        0.1116
     13 C         138.5719  140.3907  165.0571 C.ar    1  UNL1       -0.0130
     14 C         138.1000  139.3225  165.9985 C.ar    1  UNL1       -0.0025
     15 C         138.6212  139.2781  167.4044 C.ar    1  UNL1        0.0180
     16 C         139.6142  140.3019  167.8688 C.ar    1  UNL1        0.1057
     17 C         140.0861  141.3700  166.9274 C.ar    1  UNL1        0.0180
     18 C         139.5649  141.4144  165.5215 C.ar    1  UNL1       -0.0025
     19 S         140.1354  140.2575  169.2747 S.O2    1  UNL1        0.0104
     20 C         140.6566  140.2131  170.6805 C.3     1  UNL1        0.1816
     21 O         138.7698  139.8823  169.7691 O.2     1  UNL1       -0.1686
     22 O         141.5010  140.6326  168.7803 O.2     1  UNL1       -0.1686
     23 C         142.9749  137.8205  157.4330 C.3     1  UNL1        0.1256
     24 C         142.8640  136.5562  156.6335 C.ar    1  UNL1        0.1044
     25 N         142.3518  136.4437  155.2282 N.ar    1  UNL1       -0.2413
     26 C         142.4171  135.0004  154.8250 C.ar    1  UNL1        0.0875
     27 C         142.0448  134.2953  153.5546 C.ar    1  UNL1        0.0196
     28 C         142.2251  132.8106  153.4403 C.ar    1  UNL1        0.0016
     29 C         142.7777  132.0310  154.5965 C.ar    1  UNL1        0.0006
     30 C         143.1500  132.7361  155.8670 C.ar    1  UNL1        0.0080
     31 C         142.9697  134.2208  155.9813 C.ar    1  UNL1        0.0482
     32 S         143.2459  135.1823  157.0989 S.2     1  UNL1       -0.0694
@<TRIPOS>BOND
     1     8     9    1
     2     9    10   am
     3    10    11    2
     4    10    12    1
     5    12    13    1
     6    13    14   ar
     7    14    15   ar
     8    15    16   ar
     9    16    19    1
    10    19    20    1
    11    19    21    2
    12    19    22    2
    13    16    17   ar
    14    17    18   ar
    15     1     9    1
    16     1     2    1
    17     2     3    1
    18     3     4    1
    19     4    23    1
    20    23    24    1
    21    24    25   ar
    22    25    26   ar
    23    26    27   ar
    24    27    28   ar
    25    28    29   ar
    26    29    30   ar
    27    30    31   ar
    28    31    32   ar
    29     4     5    1
    30     5     6    1
    31     6     7    1
    32    18    13   ar
    33     6     1    1
    34    32    24   ar
    35    31    26   ar
@<TRIPOS>MOLECULE
*****
 32 35 0 0 0
SMALL
GASTEIGER

@<TRIPOS>ATOM
      1 C         140.1506  138.7406  160.7194 C.3     1  UNL1        0.1106
      2 C         141.5413  138.2407  160.9765 C.3     1  UNL1        0.0400
      3 C         142.4786  138.0075  159.8288 C.3     1  UNL1        0.0743
      4 N         142.0251  138.2742  158.4241 N.3     1  UNL1       -0.2648
      5 C         140.6344  138.7741  158.1670 C.3     1  UNL1        0.1098
      6 C         139.6972  139.0073  159.3147 C.3     1  UNL1        0.1948
      7 F         138.3064  139.5072  159.0577 F       1  UNL1       -0.2340
      8 C         138.4676  137.8218  162.4725 C.3     1  UNL1        0.1149
      9 N         139.2133  138.9739  161.8671 N.am    1  UNL1       -0.2763
     10 C         139.0218  140.3593  162.4094 C.2     1  UNL1        0.2301
     11 O         139.7675  141.5114  161.8039 O.2     1  UNL1       -0.2745
     12 C         138.0845  140.5926  163.5570 C.3     1  UNL1        0.1116
     13 C         138.5897  140.5087  164.9669 C.ar    1  UNL1       -0.0130
     14 C         139.5062  141.5699  165.4996 C.ar    1  UNL1       -0.0025
     15 C         140.0113  141.4861  166.9095 C.ar    1  UNL1        0.0180
     16 C         139.6000  140.3410  167.7867 C.ar    1  UNL1        0.1057
     17 C         138.6836  139.2797  167.2540 C.ar    1  UNL1        0.0180
     18 C         138.1784  139.3636  165.8441 C.ar    1  UNL1       -0.0025
     19 S         140.1052  140.2571  169.1965 S.O2    1  UNL1        0.0104
     20 C         140.6104  140.1733  170.6064 C.3     1  UNL1        0.1816
     21 O         138.7310  139.8822  169.6666 O.2     1  UNL1       -0.1686
     22 O         141.4794  140.6320  168.7265 O.2     1  UNL1       -0.1686
     23 C         142.9624  138.0409  157.2764 C.3     1  UNL1        0.1256
     24 C         142.9225  136.7419  156.5276 C.ar    1  UNL1        0.1044
     25 N         143.6241  135.4757  156.9206 N.ar    1  UNL1       -0.2413
     26 C         143.3092  134.4321  155.8901 C.ar    1  UNL1        0.0875
     27 C         143.7228  132.9965  155.7566 C.ar    1  UNL1        0.0196
     28 C         143.2401  132.1821  154.5931 C.ar    1  UNL1        0.0016
     29 C         142.3438  132.8033  153.5632 C.ar    1  UNL1        0.0006
     30 C         141.9302  134.2389  153.6968 C.ar    1  UNL1        0.0080
     31 C         142.4129  135.0533  154.8602 C.ar    1  UNL1        0.0482
     32 S         142.1739  136.4808  155.2542 S.2     1  UNL1       -0.0694
@<TRIPOS>BOND
     1     8     9    1
     2     9    10   am
     3    10    11    2
     4    10    12    1
     5    12    13    1
     6    13    14   ar
     7    14    15   ar
     8    15    16   ar
     9    16    19    1
    10    19    20    1
    11    19    21    2
    12    19    22    2
    13    16    17   ar
    14    17    18   ar
    15     1     9    1
    16     1     2    1
    17     2     3    1
    18     3     4    1
    19     4    23    1
    20    23    24    1
    21    24    25   ar
    22    25    26   ar
    23    26    27   ar
    24    27    28   ar
    25    28    29   ar
    26    29    30   ar
    27    30    31   ar
    28    31    32   ar
    29     4     5    1
    30     5     6    1
    31     6     7    1
    32    18    13   ar
    33     6     1    1
    34    32    24   ar
    35    31    26   ar
@<TRIPOS>MOLECULE
*****
 32 35 0 0 0
SMALL
GASTEIGER

@<TRIPOS>ATOM
      1 C         143.1025  139.0572  162.4078 C.3     1  UNL1        0.1106
      2 C         143.6974  138.0014  161.5239 C.3     1  UNL1        0.0400
      3 C         143.2868  137.9099  160.0840 C.3     1  UNL1        0.0743
      4 N         142.2813  138.8743  159.5282 N.3     1  UNL1       -0.2648
      5 C         141.6864  139.9301  160.4122 C.3     1  UNL1        0.1098
      6 C         142.0971  140.0216  161.8519 C.3     1  UNL1        0.1948
      7 F         141.5022  141.0774  162.7359 F       1  UNL1       -0.2340
      8 C         144.6802  140.0044  164.2418 C.3     1  UNL1        0.1149
      9 N         143.5131  139.1486  163.8476 N.am    1  UNL1       -0.2763
     10 C         142.7565  138.3843  164.8933 C.2     1  UNL1        0.2301
     11 O         141.5894  137.5284  164.4990 O.2     1  UNL1       -0.2745
     12 C         143.1671  138.4757  166.3331 C.3     1  UNL1        0.1116
     13 C         142.4421  139.4037  167.2622 C.ar    1  UNL1       -0.0130
     14 C         141.5399  140.4661  166.7080 C.ar    1  UNL1       -0.0025
     15 C         140.8150  141.3941  167.6371 C.ar    1  UNL1        0.0180
     16 C         140.9923  141.2596  169.1205 C.ar    1  UNL1        0.1057
     17 C         141.8945  140.1972  169.6747 C.ar    1  UNL1        0.0180
     18 C         142.6194  139.2692  168.7456 C.ar    1  UNL1       -0.0025
     19 S         140.2673  142.1876  170.0497 S.O2    1  UNL1        0.0104
     20 C         139.5424  143.1156  170.9788 C.3     1  UNL1        0.1816
     21 O         140.4732  143.3161  169.0832 O.2     1  UNL1       -0.1686
     22 O         140.0614  141.0591  171.0161 O.2     1  UNL1       -0.1686
     23 C         141.8707  138.7829  158.0884 C.3     1  UNL1        0.1256
     24 C         142.0505  137.4969  157.3374 C.ar    1  UNL1        0.1044
     25 N         143.2267  136.5719  157.4418 N.ar    1  UNL1       -0.2413
     26 C         142.9889  135.4135  156.5191 C.ar    1  UNL1        0.0875
     27 C         143.8063  134.1954  156.2061 C.ar    1  UNL1        0.0196
     28 C         143.3004  133.1863  155.2183 C.ar    1  UNL1        0.0016
     29 C         141.9771  133.3953  154.5435 C.ar    1  UNL1        0.0006
     30 C         141.1598  134.6135  154.8565 C.ar    1  UNL1        0.0080
     31 C         141.6656  135.6226  155.8443 C.ar    1  UNL1        0.0482
     32 S         141.0857  136.9102  156.3500 S.2     1  UNL1       -0.0694
@<TRIPOS>BOND
     1     8     9    1
     2     9    10   am
     3    10    11    2
     4    10    12    1
     5    12    13    1
     6    13    14   ar
     7    14    15   ar
     8    15    16   ar
     9    16    19    1
    10    19    20    1
    11    19    21    2
    12    19    22    2
    13    16    17   ar
    14    17    18   ar
    15     1     9    1
    16     1     2    1
    17     2     3    1
    18     3     4    1
    19     4    23    1
    20    23    24    1
    21    24    25   ar
    22    25    26   ar
    23    26    27   ar
    24    27    28   ar
    25    28    29   ar
    26    29    30   ar
    27    30    31   ar
    28    31    32   ar
    29     4     5    1
    30     5     6    1
    31     6     7    1
    32    18    13   ar
    33     6     1    1
    34    32    24   ar
    35    31    26   ar
@<TRIPOS>MOLECULE
*****
 32 35 0 0 0
SMALL
GASTEIGER

@<TRIPOS>ATOM
      1 C         140.0164  138.9057  160.4343 C.3     1  UNL1        0.1106
      2 C         139.5889  139.1947  159.0259 C.3     1  UNL1        0.0400
      3 C         140.5156  138.8964  157.8846 C.3     1  UNL1        0.0743
      4 N         141.8696  138.3090  158.1518 N.3     1  UNL1       -0.2648
      5 C         142.2971  138.0199  159.5604 C.3     1  UNL1        0.1098
      6 C         141.3705  138.3183  160.7015 C.3     1  UNL1        0.1948
      7 F         141.7980  138.0293  162.1100 F       1  UNL1       -0.2340
      8 C         138.1203  138.1611  162.0468 C.3     1  UNL1        0.1149
      9 N         139.0898  139.2041  161.5756 N.am    1  UNL1       -0.2763
     10 C         139.1328  140.5455  162.2455 C.2     1  UNL1        0.2301
     11 O         140.1024  141.5885  161.7742 O.2     1  UNL1       -0.2745
     12 C         138.2063  140.8439  163.3867 C.3     1  UNL1        0.1116
     13 C         138.6792  140.6762  164.8003 C.ar    1  UNL1       -0.0130
     14 C         139.6168  141.6807  165.4017 C.ar    1  UNL1       -0.0025
     15 C         140.0897  141.5130  166.8153 C.ar    1  UNL1        0.0180
     16 C         139.6250  140.3407  167.6275 C.ar    1  UNL1        0.1057
     17 C         138.6873  139.3362  167.0262 C.ar    1  UNL1        0.0180
     18 C         138.2144  139.5039  165.6126 C.ar    1  UNL1       -0.0025
     19 S         140.0979  140.1730  169.0411 S.O2    1  UNL1        0.0104
     20 C         140.5708  140.0053  170.4547 C.3     1  UNL1        0.1816
     21 O         138.7042  139.8151  169.4649 O.2     1  UNL1       -0.1686
     22 O         141.4915  140.5309  168.6173 O.2     1  UNL1       -0.1686
     23 C         142.7962  138.0106  157.0107 C.3     1  UNL1        0.1256
     24 C         143.7640  139.0545  156.5377 C.ar    1  UNL1        0.1044
     25 N         144.4643  140.0628  157.3996 N.ar    1  UNL1       -0.2413
     26 C         145.3344  140.9049  156.5143 C.ar    1  UNL1        0.0875
     27 C         146.2537  142.0529  156.8092 C.ar    1  UNL1        0.0196
     28 C         147.0105  142.7130  155.6951 C.ar    1  UNL1        0.0016
     29 C         146.8480  142.2251  154.2859 C.ar    1  UNL1        0.0006
     30 C         145.9287  141.0772  153.9910 C.ar    1  UNL1        0.0080
     31 C         145.1719  140.4171  155.1052 C.ar    1  UNL1        0.0482
     32 S         144.2013  139.2735  155.1196 S.2     1  UNL1       -0.0694
@<TRIPOS>BOND
     1     8     9    1
     2     9    10   am
     3    10    11    2
     4    10    12    1
     5    12    13    1
     6    13    14   ar
     7    14    15   ar
     8    15    16   ar
     9    16    19    1
    10    19    20    1
    11    19    21    2
    12    19    22    2
    13    16    17   ar
    14    17    18   ar
    15     1     9    1
    16     1     2    1
    17     2     3    1
    18     3     4    1
    19     4    23    1
    20    23    24    1
    21    24    25   ar
    22    25    26   ar
    23    26    27   ar
    24    27    28   ar
    25    28    29   ar
    26    29    30   ar
    27    30    31   ar
    28    31    32   ar
    29     4     5    1
    30     5     6    1
    31     6     7    1
    32    18    13   ar
    33     6     1    1
    34    32    24   ar
    35    31    26   ar
@<TRIPOS>MOLECULE
*****
 32 35 0 0 0
SMALL
GASTEIGER

@<TRIPOS>ATOM
      1 C         143.6654  140.3402  161.6555 C.3     1  UNL1        0.1106
      2 C         143.8025  139.5951  160.3610 C.3     1  UNL1        0.0400
      3 C         143.8687  140.3483  159.0654 C.3     1  UNL1        0.0743
      4 N         143.7978  141.8466  159.0645 N.3     1  UNL1       -0.2648
      5 C         143.6607  142.5917  160.3592 C.3     1  UNL1        0.1098
      6 C         143.5945  141.8385  161.6547 C.3     1  UNL1        0.1948
      7 F         143.4574  142.5836  162.9493 F       1  UNL1       -0.2340
      8 C         144.8135  139.4924  163.8265 C.3     1  UNL1        0.1149
      9 N         143.5992  139.5869  162.9511 N.am    1  UNL1       -0.2763
     10 C         142.3187  138.9283  163.3711 C.2     1  UNL1        0.2301
     11 O         141.1044  139.0228  162.4956 O.2     1  UNL1       -0.2745
     12 C         142.2525  138.1751  164.6666 C.3     1  UNL1        0.1116
     13 C         141.9258  138.8989  165.9391 C.ar    1  UNL1       -0.0130
     14 C         142.9543  139.0075  167.0255 C.ar    1  UNL1       -0.0025
     15 C         142.6276  139.7313  168.2980 C.ar    1  UNL1        0.0180
     16 C         141.2723  140.3465  168.4842 C.ar    1  UNL1        0.1057
     17 C         140.2438  140.2379  167.3978 C.ar    1  UNL1        0.0180
     18 C         140.5705  139.5141  166.1253 C.ar    1  UNL1       -0.0025
     19 S         140.9456  141.0703  169.7567 S.O2    1  UNL1        0.0104
     20 C         140.6189  141.7941  171.0292 C.3     1  UNL1        0.1816
     21 O         140.7826  139.7566  170.4621 O.2     1  UNL1       -0.1686
     22 O         141.1085  142.3840  169.0513 O.2     1  UNL1       -0.1686
     23 C         143.8639  142.5998  157.7691 C.3     1  UNL1        0.1256
     24 C         145.0233  142.3935  156.8399 C.ar    1  UNL1        0.1044
     25 N         146.4715  142.3654  157.2297 N.ar    1  UNL1       -0.2413
     26 C         147.2812  142.1336  155.9886 C.ar    1  UNL1        0.0875
     27 C         148.7591  142.0126  155.7624 C.ar    1  UNL1        0.0196
     28 C         149.2892  141.7763  154.3792 C.ar    1  UNL1        0.0016
     29 C         148.3415  141.6611  153.2223 C.ar    1  UNL1        0.0006
     30 C         146.8636  141.7822  153.4485 C.ar    1  UNL1        0.0080
     31 C         146.3335  142.0184  154.8316 C.ar    1  UNL1        0.0482
     32 S         144.9380  142.1791  155.3578 S.2     1  UNL1       -0.0694
@<TRIPOS>BOND
     1     8     9    1
     2     9    10   am
     3    10    11    2
     4    10    12    1
     5    12    13    1
     6    13    14   ar
     7    14    15   ar
     8    15    16   ar
     9    16    19    1
    10    19    20    1
    11    19    21    2
    12    19    22    2
    13    16    17   ar
    14    17    18   ar
    15     1     9    1
    16     1     2    1
    17     2     3    1
    18     3     4    1
    19     4    23    1
    20    23    24    1
    21    24    25   ar
    22    25    26   ar
    23    26    27   ar
    24    27    28   ar
    25    28    29   ar
    26    29    30   ar
    27    30    31   ar
    28    31    32   ar
    29     4     5    1
    30     5     6    1
    31     6     7    1
    32    18    13   ar
    33     6     1    1
    34    32    24   ar
    35    31    26   ar
@<TRIPOS>MOLECULE
*****
 32 35 0 0 0
SMALL
GASTEIGER

@<TRIPOS>ATOM
      1 C         140.8016  138.8697  160.5744 C.3     1  UNL1        0.1106
      2 C         142.1922  138.3180  160.6828 C.3     1  UNL1        0.0400
      3 C         142.8577  137.7197  159.4790 C.3     1  UNL1        0.0743
      4 N         142.1325  137.6731  158.1667 N.3     1  UNL1       -0.2648
      5 C         140.7418  138.2248  158.0584 C.3     1  UNL1        0.1098
      6 C         140.0764  138.8230  159.2622 C.3     1  UNL1        0.1948
      7 F         138.6857  139.3747  159.1538 F       1  UNL1       -0.2340
      8 C         139.2616  138.6181  162.6517 C.3     1  UNL1        0.1149
      9 N         140.1361  139.4680  161.7783 N.am    1  UNL1       -0.2763
     10 C         140.3452  140.9161  162.1086 C.2     1  UNL1        0.2301
     11 O         141.2198  141.7660  161.2351 O.2     1  UNL1       -0.2745
     12 C         139.6797  141.5144  163.3124 C.3     1  UNL1        0.1116
     13 C         140.4321  141.6314  164.6048 C.ar    1  UNL1       -0.0130
     14 C         141.8761  142.0372  164.5978 C.ar    1  UNL1       -0.0025
     15 C         142.6286  142.1542  165.8902 C.ar    1  UNL1        0.0180
     16 C         141.9370  141.8654  167.1895 C.ar    1  UNL1        0.1057
     17 C         140.4930  141.4596  167.1964 C.ar    1  UNL1        0.0180
     18 C         139.7405  141.3426  165.9041 C.ar    1  UNL1       -0.0025
     19 S         142.6894  141.9824  168.4818 S.O2    1  UNL1        0.0104
     20 C         143.4418  142.0994  169.7742 C.3     1  UNL1        0.1816
     21 O         143.7505  142.7869  167.7912 O.2     1  UNL1       -0.1686
     22 O         141.6284  141.1779  169.1724 O.2     1  UNL1       -0.1686
     23 C         142.7980  137.0748  156.9629 C.3     1  UNL1        0.1256
     24 C         142.6342  135.6141  156.6638 C.ar    1  UNL1        0.1044
     25 N         141.6808  135.0190  155.6704 N.ar    1  UNL1       -0.2413
     26 C         141.8524  133.5291  155.6982 C.ar    1  UNL1        0.0875
     27 C         141.1808  132.4270  154.9338 C.ar    1  UNL1        0.0196
     28 C         141.5687  130.9992  155.1801 C.ar    1  UNL1        0.0016
     29 C         142.6282  130.6734  156.1907 C.ar    1  UNL1        0.0006
     30 C         143.2998  131.7755  156.9550 C.ar    1  UNL1        0.0080
     31 C         142.9119  133.2034  156.7088 C.ar    1  UNL1        0.0482
     32 S         143.3951  134.4920  157.3055 S.2     1  UNL1       -0.0694
@<TRIPOS>BOND
     1     8     9    1
     2     9    10   am
     3    10    11    2
     4    10    12    1
     5    12    13    1
     6    13    14   ar
     7    14    15   ar
     8    15    16   ar
     9    16    19    1
    10    19    20    1
    11    19    21    2
    12    19    22    2
    13    16    17   ar
    14    17    18   ar
    15     1     9    1
    16     1     2    1
    17     2     3    1
    18     3     4    1
    19     4    23    1
    20    23    24    1
    21    24    25   ar
    22    25    26   ar
    23    26    27   ar
    24    27    28   ar
    25    28    29   ar
    26    29    30   ar
    27    30    31   ar
    28    31    32   ar
    29     4     5    1
    30     5     6    1
    31     6     7    1
    32    18    13   ar
    33     6     1    1
    34    32    24   ar
    35    31    26   ar
@<TRIPOS>MOLECULE
*****
 32 35 0 0 0
SMALL
GASTEIGER

@<TRIPOS>ATOM
      1 C         142.9130  139.5260  157.4457 C.3     1  UNL1        0.1106
      2 C         142.7150  140.9125  156.9088 C.3     1  UNL1        0.0400
      3 C         142.7629  142.0901  157.8367 C.3     1  UNL1        0.0743
      4 N         143.0089  141.8811  159.3016 N.3     1  UNL1       -0.2648
      5 C         143.2069  140.4945  159.8385 C.3     1  UNL1        0.1098
      6 C         143.1590  139.3170  158.9106 C.3     1  UNL1        0.1948
      7 F         143.3570  137.9304  159.4475 F       1  UNL1       -0.2340
      8 C         143.9773  138.1202  155.5376 C.3     1  UNL1        0.1149
      9 N         142.8651  138.3484  156.5178 N.am    1  UNL1       -0.2763
     10 C         141.7049  137.3991  156.5700 C.2     1  UNL1        0.2301
     11 O         140.5926  137.6274  157.5503 O.2     1  UNL1       -0.2745
     12 C         141.6569  136.2216  155.6422 C.3     1  UNL1        0.1116
     13 C         142.2184  134.9004  156.0773 C.ar    1  UNL1       -0.0130
     14 C         141.6938  133.6289  155.4791 C.ar    1  UNL1       -0.0025
     15 C         142.2553  132.3078  155.9143 C.ar    1  UNL1        0.0180
     16 C         143.3414  132.2582  156.9476 C.ar    1  UNL1        0.1057
     17 C         143.8661  133.5298  157.5457 C.ar    1  UNL1        0.0180
     18 C         143.3045  134.8509  157.1106 C.ar    1  UNL1       -0.0025
     19 S         143.9029  130.9371  157.3827 S.O2    1  UNL1        0.0104
     20 C         144.4645  129.6160  157.8178 C.3     1  UNL1        0.1816
     21 O         142.8198  130.2274  156.6256 O.2     1  UNL1       -0.1686
     22 O         144.9861  131.6468  158.1398 O.2     1  UNL1       -0.1686
     23 C         143.0568  143.0587  160.2295 C.3     1  UNL1        0.1256
     24 C         141.9027  143.3390  161.1458 C.ar    1  UNL1        0.1044
     25 N         140.4749  142.9432  160.9119 N.ar    1  UNL1       -0.2413
     26 C         139.6635  143.4240  162.0783 C.ar    1  UNL1        0.0875
     27 C         138.2009  143.3203  162.3943 C.ar    1  UNL1        0.0196
     28 C         137.6646  143.9096  163.6652 C.ar    1  UNL1        0.0016
     29 C         138.5910  144.6025  164.6200 C.ar    1  UNL1        0.0006
     30 C         140.0536  144.7062  164.3040 C.ar    1  UNL1        0.0080
     31 C         140.5899  144.1170  163.0331 C.ar    1  UNL1        0.0482
     32 S         141.9738  144.0644  162.4568 S.2     1  UNL1       -0.0694
@<TRIPOS>BOND
     1     8     9    1
     2     9    10   am
     3    10    11    2
     4    10    12    1
     5    12    13    1
     6    13    14   ar
     7    14    15   ar
     8    15    16   ar
     9    16    19    1
    10    19    20    1
    11    19    21    2
    12    19    22    2
    13    16    17   ar
    14    17    18   ar
    15     1     9    1
    16     1     2    1
    17     2     3    1
    18     3     4    1
    19     4    23    1
    20    23    24    1
    21    24    25   ar
    22    25    26   ar
    23    26    27   ar
    24    27    28   ar
    25    28    29   ar
    26    29    30   ar
    27    30    31   ar
    28    31    32   ar
    29     4     5    1
    30     5     6    1
    31     6     7    1
    32    18    13   ar
    33     6     1    1
    34    32    24   ar
    35    31    26   ar
