@<TRIPOS>MOLECULE
*****
 31 34 0 0 0
SMALL
GASTEIGER

@<TRIPOS>ATOM
      1 C         140.8608  139.4919  165.4329 C.ar    1  UNL1        0.1393
      2 C         140.6201  139.8696  166.8644 C.ar    1  UNL1        0.0689
      3 C         141.3674  141.0192  167.4726 C.ar    1  UNL1        0.1375
      4 N         142.3554  141.7911  166.6492 N.ar    1  UNL1       -0.1988
      5 C         142.5961  141.4134  165.2176 C.ar    1  UNL1        0.2194
      6 N         141.8488  140.2638  164.6095 N.ar    1  UNL1       -0.1986
      7 N         141.1267  141.3969  168.9042 N.pl3   1  UNL1       -0.2879
      8 C         141.8575  140.6817  170.0016 C.3     1  UNL1        0.1242
      9 C         141.6168  141.0594  171.4331 C.3     1  UNL1        0.1636
     10 O         140.6453  142.1524  171.7673 O.3     1  UNL1       -0.3501
     11 C         139.9145  142.8676  170.6699 C.3     1  UNL1        0.1636
     12 C         140.1552  142.4899  169.2383 C.3     1  UNL1        0.1242
     13 N         140.1135  138.3422  164.8246 N.pl3   1  UNL1       -0.2780
     14 H         139.9520  137.5263  165.3513 H       1  UNL1        0.1555
     15 C         137.3877  139.8232  160.5517 C.3     1  UNL1        0.0399
     16 C         138.3592  139.1166  161.4500 C.ar    1  UNL1        0.0293
     17 C         139.3221  138.0431  161.0366 C.ar    1  UNL1        0.1030
     18 N         140.0964  137.6225  162.2505 N.ar    1  UNL1       -0.2228
     19 C         139.6121  138.4358  163.4140 C.ar    1  UNL1        0.1643
     20 S         138.5385  139.3592  162.9193 S.2     1  UNL1       -0.0557
     21 N         143.5842  142.1853  164.3943 N.pl3   1  UNL1       -0.2981
     22 H         144.5461  141.9894  164.4683 H       1  UNL1        0.1500
     23 C         143.1065  143.2556  163.4582 C.3     1  UNL1        0.1306
     24 C         144.0946  144.0279  162.6353 C.3     1  UNL1        0.0295
     25 C         141.6407  143.5535  163.3449 C.ar    1  UNL1        0.1570
     26 N         140.8146  142.8671  162.2979 N.ar    1  UNL1       -0.2251
     27 C         139.3489  143.1650  162.1846 C.ar    1  UNL1        0.1314
     28 C         138.7092  144.1495  163.1184 C.ar    1  UNL1        0.1783
     29 F         137.2435  144.4474  163.0051 F       1  UNL1       -0.2009
     30 C         139.5354  144.8359  164.1654 C.ar    1  UNL1        0.1314
     31 N         141.0012  144.5379  164.2787 N.ar    1  UNL1       -0.2251
@<TRIPOS>BOND
     1    15    16    1
     2    16    17   ar
     3    17    18   ar
     4    18    19   ar
     5    19    13    1
     6    13     1    1
     7     1     2   ar
     8     2     3   ar
     9     3     7    1
    10     7     8    1
    11     8     9    1
    12     9    10    1
    13    10    11    1
    14    11    12    1
    15     3     4   ar
    16     4     5   ar
    17     5    21    1
    18    21    23    1
    19    23    24    1
    20    23    25    1
    21    25    26   ar
    22    26    27   ar
    23    27    28   ar
    24    28    29    1
    25    28    30   ar
    26    30    31   ar
    27     5     6   ar
    28    19    20   ar
    29    20    16   ar
    30     6     1   ar
    31    12     7    1
    32    31    25   ar
    33    13    14    1
    34    21    22    1
@<TRIPOS>MOLECULE
*****
 31 34 0 0 0
SMALL
GASTEIGER

@<TRIPOS>ATOM
      1 C         143.0359  140.0021  165.1991 C.ar    1  UNL1        0.1393
      2 C         143.0010  140.5846  166.5809 C.ar    1  UNL1        0.0689
      3 C         141.7631  140.4553  167.4181 C.ar    1  UNL1        0.1375
      4 N         140.5603  139.7436  166.8735 N.ar    1  UNL1       -0.1988
      5 C         140.5952  139.1611  165.4917 C.ar    1  UNL1        0.2194
      6 N         141.8331  139.2903  164.6545 N.ar    1  UNL1       -0.1986
      7 N         141.7281  141.0378  168.8000 N.pl3   1  UNL1       -0.2879
      8 C         142.4851  142.2969  169.1026 C.3     1  UNL1        0.1242
      9 C         142.4501  142.8794  170.4843 C.3     1  UNL1        0.1636
     10 O         141.6581  142.2028  171.5637 O.3     1  UNL1       -0.3501
     11 C         140.9010  140.9437  171.2612 C.3     1  UNL1        0.1636
     12 C         140.9361  140.3612  169.8793 C.3     1  UNL1        0.1242
     13 N         144.2738  140.1313  164.3618 N.pl3   1  UNL1       -0.2780
     14 H         145.0329  139.5217  164.5080 H       1  UNL1        0.1555
     15 C         144.3897  142.5299  159.6592 C.3     1  UNL1        0.0399
     16 C         144.4084  142.2918  161.1401 C.ar    1  UNL1        0.0293
     17 C         144.5520  143.3432  162.2004 C.ar    1  UNL1        0.1030
     18 N         144.5191  142.6617  163.5363 N.ar    1  UNL1       -0.2228
     19 C         144.3551  141.1893  163.3016 C.ar    1  UNL1        0.1643
     20 S         144.2867  140.9607  161.8207 S.2     1  UNL1       -0.0557
     21 N         139.3924  138.4493  164.9472 N.pl3   1  UNL1       -0.2981
     22 H         139.0097  137.6849  165.4355 H       1  UNL1        0.1500
     23 C         138.7725  138.9023  163.6586 C.3     1  UNL1        0.1306
     24 C         138.4986  137.9092  162.5683 C.3     1  UNL1        0.0295
     25 C         138.4265  140.3483  163.4602 C.ar    1  UNL1        0.1570
     26 N         138.4202  140.9354  162.0799 N.ar    1  UNL1       -0.2251
     27 C         138.0742  142.3814  161.8814 C.ar    1  UNL1        0.1314
     28 C         137.7346  143.2404  163.0634 C.ar    1  UNL1        0.1783
     29 F         137.3887  144.6864  162.8650 F       1  UNL1       -0.2009
     30 C         137.7410  142.6533  164.4437 C.ar    1  UNL1        0.1314
     31 N         138.0870  141.2072  164.6421 N.ar    1  UNL1       -0.2251
@<TRIPOS>BOND
     1    15    16    1
     2    16    17   ar
     3    17    18   ar
     4    18    19   ar
     5    19    13    1
     6    13     1    1
     7     1     2   ar
     8     2     3   ar
     9     3     7    1
    10     7     8    1
    11     8     9    1
    12     9    10    1
    13    10    11    1
    14    11    12    1
    15     3     4   ar
    16     4     5   ar
    17     5    21    1
    18    21    23    1
    19    23    24    1
    20    23    25    1
    21    25    26   ar
    22    26    27   ar
    23    27    28   ar
    24    28    29    1
    25    28    30   ar
    26    30    31   ar
    27     5     6   ar
    28    19    20   ar
    29    20    16   ar
    30     6     1   ar
    31    12     7    1
    32    31    25   ar
    33    13    14    1
    34    21    22    1
@<TRIPOS>MOLECULE
*****
 31 34 0 0 0
SMALL
GASTEIGER

@<TRIPOS>ATOM
      1 C         143.5950  142.4551  164.4887 C.ar    1  UNL1        0.1393
      2 C         143.2640  142.4455  165.9517 C.ar    1  UNL1        0.0689
      3 C         143.0382  141.1433  166.6610 C.ar    1  UNL1        0.1375
      4 N         143.1433  139.8507  165.9073 N.ar    1  UNL1       -0.1988
      5 C         143.4743  139.8602  164.4444 C.ar    1  UNL1        0.2194
      6 N         143.7001  141.1625  163.7350 N.ar    1  UNL1       -0.1986
      7 N         142.7072  141.1337  168.1240 N.pl3   1  UNL1       -0.2879
      8 C         142.4927  139.8309  168.8359 C.3     1  UNL1        0.1242
      9 C         142.1618  139.8213  170.2988 C.3     1  UNL1        0.1636
     10 O         142.0453  141.1144  171.0500 O.3     1  UNL1       -0.3501
     11 C         142.2598  142.4172  170.3382 C.3     1  UNL1        0.1636
     12 C         142.5907  142.4268  168.8751 C.3     1  UNL1        0.1242
     13 N         143.8208  143.7574  163.7793 N.pl3   1  UNL1       -0.2780
     14 H         144.6465  144.2688  163.9402 H       1  UNL1        0.1555
     15 C         139.5689  146.2042  161.8262 C.3     1  UNL1        0.0399
     16 C         140.8342  145.4051  161.9271 C.ar    1  UNL1        0.0293
     17 C         141.5664  144.7651  160.7848 C.ar    1  UNL1        0.1030
     18 N         142.7742  144.0700  161.3397 N.ar    1  UNL1       -0.2228
     19 C         142.7887  144.2803  162.8248 C.ar    1  UNL1        0.1643
     20 S         141.5897  145.1054  163.1878 S.2     1  UNL1       -0.0557
     21 N         143.5794  138.5676  163.6907 N.pl3   1  UNL1       -0.2981
     22 H         144.0334  137.7953  164.0990 H       1  UNL1        0.1500
     23 C         142.9930  138.4516  162.3150 C.3     1  UNL1        0.1306
     24 C         143.8900  138.4736  161.1130 C.3     1  UNL1        0.0295
     25 C         141.5094  138.3138  162.1413 C.ar    1  UNL1        0.1570
     26 N         140.8840  138.5710  160.8024 N.ar    1  UNL1       -0.2251
     27 C         139.4005  138.4331  160.6286 C.ar    1  UNL1        0.1314
     28 C         138.5424  138.0380  161.7938 C.ar    1  UNL1        0.1783
     29 F         137.0589  137.9002  161.6200 F       1  UNL1       -0.2009
     30 C         139.1678  137.7808  163.1327 C.ar    1  UNL1        0.1314
     31 N         140.6514  137.9187  163.3064 N.ar    1  UNL1       -0.2251
@<TRIPOS>BOND
     1    15    16    1
     2    16    17   ar
     3    17    18   ar
     4    18    19   ar
     5    19    13    1
     6    13     1    1
     7     1     2   ar
     8     2     3   ar
     9     3     7    1
    10     7     8    1
    11     8     9    1
    12     9    10    1
    13    10    11    1
    14    11    12    1
    15     3     4   ar
    16     4     5   ar
    17     5    21    1
    18    21    23    1
    19    23    24    1
    20    23    25    1
    21    25    26   ar
    22    26    27   ar
    23    27    28   ar
    24    28    29    1
    25    28    30   ar
    26    30    31   ar
    27     5     6   ar
    28    19    20   ar
    29    20    16   ar
    30     6     1   ar
    31    12     7    1
    32    31    25   ar
    33    13    14    1
    34    21    22    1
@<TRIPOS>MOLECULE
*****
 31 34 0 0 0
SMALL
GASTEIGER

@<TRIPOS>ATOM
      1 C         142.1423  139.5843  165.6571 C.ar    1  UNL1        0.1393
      2 C         141.6504  139.8979  167.0390 C.ar    1  UNL1        0.0689
      3 C         141.9340  141.2382  167.6498 C.ar    1  UNL1        0.1375
      4 N         142.7095  142.2649  166.8787 N.ar    1  UNL1       -0.1988
      5 C         143.2014  141.9513  165.4968 C.ar    1  UNL1        0.2194
      6 N         142.9178  140.6110  164.8860 N.ar    1  UNL1       -0.1986
      7 N         141.4422  141.5519  169.0317 N.pl3   1  UNL1       -0.2879
      8 C         141.9887  140.8024  170.2105 C.3     1  UNL1        0.1242
      9 C         141.4969  141.1160  171.5924 C.3     1  UNL1        0.1636
     10 O         140.4585  142.1793  171.7956 O.3     1  UNL1       -0.3501
     11 C         139.9119  142.9288  170.6168 C.3     1  UNL1        0.1636
     12 C         140.4038  142.6151  169.2349 C.3     1  UNL1        0.1242
     13 N         141.8587  138.2439  165.0462 N.pl3   1  UNL1       -0.2780
     14 H         142.3596  137.4508  165.3451 H       1  UNL1        0.1555
     15 C         139.4442  138.2567  160.3504 C.3     1  UNL1        0.0399
     16 C         139.7021  138.1179  161.8215 C.ar    1  UNL1        0.0293
     17 C         138.7002  137.7001  162.8568 C.ar    1  UNL1        0.1030
     18 N         139.3862  137.6965  164.1908 N.ar    1  UNL1       -0.2228
     19 C         140.8120  138.1120  163.9800 C.ar    1  UNL1        0.1643
     20 S         141.0072  138.3724  162.5157 S.2     1  UNL1       -0.0557
     21 N         143.9769  142.9779  164.7257 N.pl3   1  UNL1       -0.2981
     22 H         144.9369  143.1050  164.9029 H       1  UNL1        0.1500
     23 C         143.2897  143.8109  163.6847 C.3     1  UNL1        0.1306
     24 C         144.0948  144.7004  162.7843 C.3     1  UNL1        0.0295
     25 C         141.7973  143.7544  163.5439 C.ar    1  UNL1        0.1570
     26 N         140.9353  144.7179  164.3044 N.ar    1  UNL1       -0.2251
     27 C         139.4430  144.6614  164.1637 C.ar    1  UNL1        0.1314
     28 C         138.8127  143.6414  163.2624 C.ar    1  UNL1        0.1783
     29 F         137.3204  143.5849  163.1217 F       1  UNL1       -0.2009
     30 C         139.6747  142.6779  162.5019 C.ar    1  UNL1        0.1314
     31 N         141.1671  142.7344  162.6426 N.ar    1  UNL1       -0.2251
@<TRIPOS>BOND
     1    15    16    1
     2    16    17   ar
     3    17    18   ar
     4    18    19   ar
     5    19    13    1
     6    13     1    1
     7     1     2   ar
     8     2     3   ar
     9     3     7    1
    10     7     8    1
    11     8     9    1
    12     9    10    1
    13    10    11    1
    14    11    12    1
    15     3     4   ar
    16     4     5   ar
    17     5    21    1
    18    21    23    1
    19    23    24    1
    20    23    25    1
    21    25    26   ar
    22    26    27   ar
    23    27    28   ar
    24    28    29    1
    25    28    30   ar
    26    30    31   ar
    27     5     6   ar
    28    19    20   ar
    29    20    16   ar
    30     6     1   ar
    31    12     7    1
    32    31    25   ar
    33    13    14    1
    34    21    22    1
@<TRIPOS>MOLECULE
*****
 31 34 0 0 0
SMALL
GASTEIGER

@<TRIPOS>ATOM
      1 C         139.5749  143.4546  165.2837 C.ar    1  UNL1        0.1393
      2 C         140.1301  143.3233  166.6709 C.ar    1  UNL1        0.0689
      3 C         140.1232  141.9902  167.3585 C.ar    1  UNL1        0.1375
      4 N         139.5611  140.7884  166.6588 N.ar    1  UNL1       -0.1988
      5 C         139.0058  140.9196  165.2716 C.ar    1  UNL1        0.2194
      6 N         139.0127  142.2527  164.5840 N.ar    1  UNL1       -0.1986
      7 N         140.6785  141.8589  168.7458 N.pl3   1  UNL1       -0.2879
      8 C         140.0894  140.8609  169.6980 C.3     1  UNL1        0.1242
      9 C         140.6446  140.7296  171.0853 C.3     1  UNL1        0.1636
     10 O         141.7890  141.5963  171.5203 O.3     1  UNL1       -0.3501
     11 C         142.3782  142.5944  170.5680 C.3     1  UNL1        0.1636
     12 C         141.8229  142.7257  169.1807 C.3     1  UNL1        0.1242
     13 N         139.5817  144.7878  164.5961 N.pl3   1  UNL1       -0.2780
     14 H         139.3186  145.5977  165.0900 H       1  UNL1        0.1555
     15 C         142.1584  144.0603  160.0451 C.3     1  UNL1        0.0399
     16 C         141.1739  144.5524  161.0641 C.ar    1  UNL1        0.0293
     17 C         140.0600  145.5260  160.8157 C.ar    1  UNL1        0.1030
     18 N         139.3281  145.7326  162.1086 N.ar    1  UNL1       -0.2228
     19 C         139.9895  144.8868  163.1560 C.ar    1  UNL1        0.1643
     20 S         141.1302  144.1574  162.5105 S.2     1  UNL1       -0.0557
     21 N         138.4437  139.7178  164.5719 N.pl3   1  UNL1       -0.2981
     22 H         137.4743  139.5470  164.5888 H       1  UNL1        0.1500
     23 C         139.3586  138.7762  163.8464 C.3     1  UNL1        0.1306
     24 C         138.7881  137.7213  162.9455 C.3     1  UNL1        0.0295
     25 C         140.8440  138.8895  164.0218 C.ar    1  UNL1        0.1570
     26 N         141.5125  138.2375  165.1957 N.ar    1  UNL1       -0.2251
     27 C         142.9978  138.3508  165.3712 C.ar    1  UNL1        0.1314
     28 C         143.8148  139.1160  164.3727 C.ar    1  UNL1        0.1783
     29 F         145.3002  139.2293  164.5481 F       1  UNL1       -0.2009
     30 C         143.1464  139.7680  163.1988 C.ar    1  UNL1        0.1314
     31 N         141.6609  139.6547  163.0233 N.ar    1  UNL1       -0.2251
@<TRIPOS>BOND
     1    15    16    1
     2    16    17   ar
     3    17    18   ar
     4    18    19   ar
     5    19    13    1
     6    13     1    1
     7     1     2   ar
     8     2     3   ar
     9     3     7    1
    10     7     8    1
    11     8     9    1
    12     9    10    1
    13    10    11    1
    14    11    12    1
    15     3     4   ar
    16     4     5   ar
    17     5    21    1
    18    21    23    1
    19    23    24    1
    20    23    25    1
    21    25    26   ar
    22    26    27   ar
    23    27    28   ar
    24    28    29    1
    25    28    30   ar
    26    30    31   ar
    27     5     6   ar
    28    19    20   ar
    29    20    16   ar
    30     6     1   ar
    31    12     7    1
    32    31    25   ar
    33    13    14    1
    34    21    22    1
@<TRIPOS>MOLECULE
*****
 31 34 0 0 0
SMALL
GASTEIGER

@<TRIPOS>ATOM
      1 C         140.0891  139.1234  165.4490 C.ar    1  UNL1        0.1393
      2 C         139.9602  139.7607  166.8007 C.ar    1  UNL1        0.0689
      3 C         141.1897  140.1473  167.5679 C.ar    1  UNL1        0.1375
      4 N         142.5482  139.8964  166.9835 N.ar    1  UNL1       -0.1988
      5 C         142.6772  139.2591  165.6318 C.ar    1  UNL1        0.2194
      6 N         141.4476  138.8726  164.8645 N.ar    1  UNL1       -0.1986
      7 N         141.0609  140.7846  168.9197 N.pl3   1  UNL1       -0.2879
      8 C         141.9102  140.3048  170.0592 C.3     1  UNL1        0.1242
      9 C         141.7813  140.9421  171.4109 C.3     1  UNL1        0.1636
     10 O         140.8031  142.0593  171.6232 O.3     1  UNL1       -0.3501
     11 C         139.9538  142.5392  170.4837 C.3     1  UNL1        0.1636
     12 C         140.0827  141.9018  169.1319 C.3     1  UNL1        0.1242
     13 N         138.8595  138.7368  164.6816 N.pl3   1  UNL1       -0.2780
     14 H         138.2971  137.9923  164.9957 H       1  UNL1        0.1555
     15 C         138.1585  142.6251  161.1787 C.3     1  UNL1        0.0399
     16 C         138.1647  141.2718  161.8257 C.ar    1  UNL1        0.0293
     17 C         137.6622  139.9987  161.2119 C.ar    1  UNL1        0.1030
     18 N         137.8614  138.8942  162.2070 N.ar    1  UNL1       -0.2228
     19 C         138.4869  139.4846  163.4359 C.ar    1  UNL1        0.1643
     20 S         138.6743  140.9541  163.2002 S.2     1  UNL1       -0.0557
     21 N         144.0357  139.0083  165.0473 N.pl3   1  UNL1       -0.2981
     22 H         144.6142  138.3089  165.4287 H       1  UNL1        0.1500
     23 C         144.5128  139.8231  163.8818 C.3     1  UNL1        0.1306
     24 C         145.4100  141.0035  164.1090 C.3     1  UNL1        0.0295
     25 C         144.0927  139.4574  162.4890 C.ar    1  UNL1        0.1570
     26 N         143.5883  138.0754  162.1962 N.ar    1  UNL1       -0.2251
     27 C         143.1683  137.7098  160.8034 C.ar    1  UNL1        0.1314
     28 C         143.2525  138.7261  159.7034 C.ar    1  UNL1        0.1783
     29 F         142.8324  138.3605  158.3107 F       1  UNL1       -0.2009
     30 C         143.7569  140.1081  159.9962 C.ar    1  UNL1        0.1314
     31 N         144.1770  140.4737  161.3890 N.ar    1  UNL1       -0.2251
@<TRIPOS>BOND
     1    15    16    1
     2    16    17   ar
     3    17    18   ar
     4    18    19   ar
     5    19    13    1
     6    13     1    1
     7     1     2   ar
     8     2     3   ar
     9     3     7    1
    10     7     8    1
    11     8     9    1
    12     9    10    1
    13    10    11    1
    14    11    12    1
    15     3     4   ar
    16     4     5   ar
    17     5    21    1
    18    21    23    1
    19    23    24    1
    20    23    25    1
    21    25    26   ar
    22    26    27   ar
    23    27    28   ar
    24    28    29    1
    25    28    30   ar
    26    30    31   ar
    27     5     6   ar
    28    19    20   ar
    29    20    16   ar
    30     6     1   ar
    31    12     7    1
    32    31    25   ar
    33    13    14    1
    34    21    22    1
@<TRIPOS>MOLECULE
*****
 31 34 0 0 0
SMALL
GASTEIGER

@<TRIPOS>ATOM
      1 C         142.6437  143.9778  161.3609 C.ar    1  UNL1        0.1393
      2 C         142.0174  143.9759  159.9979 C.ar    1  UNL1        0.0689
      3 C         140.6206  144.4906  159.8137 C.ar    1  UNL1        0.1375
      4 N         139.8501  145.0072  160.9924 N.ar    1  UNL1       -0.1988
      5 C         140.4763  145.0091  162.3554 C.ar    1  UNL1        0.2194
      6 N         141.8731  144.4944  162.5397 N.ar    1  UNL1       -0.1986
      7 N         139.9943  144.4888  158.4507 N.pl3   1  UNL1       -0.2879
      8 C         140.1707  145.6696  157.5426 C.3     1  UNL1        0.1242
      9 C         139.5444  145.6678  156.1797 C.3     1  UNL1        0.1636
     10 O         138.7417  144.4851  155.7247 O.3     1  UNL1       -0.3501
     11 C         138.5653  143.3043  156.6327 C.3     1  UNL1        0.1636
     12 C         139.1916  143.3061  157.9957 C.3     1  UNL1        0.1242
     13 N         144.0405  143.4631  161.5452 N.pl3   1  UNL1       -0.2780
     14 H         144.7907  143.8970  161.0781 H       1  UNL1        0.1555
     15 C         143.3698  138.9972  164.2814 C.3     1  UNL1        0.0399
     16 C         143.9861  140.2344  163.6989 C.ar    1  UNL1        0.0293
     17 C         145.3842  140.7210  163.9412 C.ar    1  UNL1        0.1030
     18 N         145.5747  141.9897  163.1639 N.ar    1  UNL1       -0.2228
     19 C         144.2944  142.2872  162.4412 C.ar    1  UNL1        0.1643
     20 S         143.3126  141.2024  162.7719 S.2     1  UNL1       -0.0557
     21 N         139.7058  145.5256  163.5342 N.pl3   1  UNL1       -0.2981
     22 H         139.6836  146.4917  163.7227 H       1  UNL1        0.1500
     23 C         138.9692  144.5704  164.4257 C.3     1  UNL1        0.1306
     24 C         138.4152  145.0436  165.7369 C.3     1  UNL1        0.0295
     25 C         138.7864  143.1419  164.0059 C.ar    1  UNL1        0.1570
     26 N         139.7688  142.0985  164.4488 N.ar    1  UNL1       -0.2251
     27 C         139.5861  140.6701  164.0292 C.ar    1  UNL1        0.1314
     28 C         138.4209  140.2850  163.1666 C.ar    1  UNL1        0.1783
     29 F         138.2381  138.8566  162.7469 F       1  UNL1       -0.2009
     30 C         137.4384  141.3284  162.7237 C.ar    1  UNL1        0.1314
     31 N         137.6212  142.7569  163.1434 N.ar    1  UNL1       -0.2251
@<TRIPOS>BOND
     1    15    16    1
     2    16    17   ar
     3    17    18   ar
     4    18    19   ar
     5    19    13    1
     6    13     1    1
     7     1     2   ar
     8     2     3   ar
     9     3     7    1
    10     7     8    1
    11     8     9    1
    12     9    10    1
    13    10    11    1
    14    11    12    1
    15     3     4   ar
    16     4     5   ar
    17     5    21    1
    18    21    23    1
    19    23    24    1
    20    23    25    1
    21    25    26   ar
    22    26    27   ar
    23    27    28   ar
    24    28    29    1
    25    28    30   ar
    26    30    31   ar
    27     5     6   ar
    28    19    20   ar
    29    20    16   ar
    30     6     1   ar
    31    12     7    1
    32    31    25   ar
    33    13    14    1
    34    21    22    1
@<TRIPOS>MOLECULE
*****
 31 34 0 0 0
SMALL
GASTEIGER

@<TRIPOS>ATOM
      1 C         142.0906  139.4552  165.5190 C.ar    1  UNL1        0.1393
      2 C         142.0793  139.9903  166.9202 C.ar    1  UNL1        0.0689
      3 C         140.7868  140.4191  167.5489 C.ar    1  UNL1        0.1375
      4 N         139.5054  140.3128  166.7764 N.ar    1  UNL1       -0.1988
      5 C         139.5166  139.7777  165.3751 C.ar    1  UNL1        0.2194
      6 N         140.8092  139.3489  164.7464 N.ar    1  UNL1       -0.1986
      7 N         140.7755  140.9542  168.9502 N.pl3   1  UNL1       -0.2879
      8 C         141.5221  140.2343  170.0339 C.3     1  UNL1        0.1242
      9 C         141.5109  140.7694  171.4352 C.3     1  UNL1        0.1636
     10 O         140.7530  142.0243  171.7528 O.3     1  UNL1       -0.3501
     11 C         140.0063  142.7441  170.6691 C.3     1  UNL1        0.1636
     12 C         140.0176  142.2090  169.2678 C.3     1  UNL1        0.1242
     13 N         143.3832  139.0264  164.8902 N.pl3   1  UNL1       -0.2780
     14 H         144.0366  138.5075  165.4128 H       1  UNL1        0.1555
     15 C         144.3449  141.8203  160.5142 C.3     1  UNL1        0.0399
     16 C         144.1224  140.6724  161.4537 C.ar    1  UNL1        0.0293
     17 C         144.1529  139.2172  161.0907 C.ar    1  UNL1        0.1030
     18 N         143.8796  138.4236  162.3338 N.ar    1  UNL1       -0.2228
     19 C         143.6804  139.3882  163.4651 C.ar    1  UNL1        0.1643
     20 S         143.8304  140.7780  162.9212 S.2     1  UNL1       -0.0557
     21 N         138.2353  139.6714  164.6026 N.pl3   1  UNL1       -0.2981
     22 H         137.4458  139.2512  165.0141 H       1  UNL1        0.1500
     23 C         138.1568  140.2054  163.2031 C.3     1  UNL1        0.1306
     24 C         137.8017  139.2893  162.0696 C.3     1  UNL1        0.0295
     25 C         138.4333  141.6555  162.9370 C.ar    1  UNL1        0.1570
     26 N         137.4537  142.7000  163.3836 N.ar    1  UNL1       -0.2251
     27 C         137.7302  144.1501  163.1176 C.ar    1  UNL1        0.1314
     28 C         138.9862  144.5557  162.4049 C.ar    1  UNL1        0.1783
     29 F         139.2627  146.0058  162.1388 F       1  UNL1       -0.2009
     30 C         139.9658  143.5112  161.9583 C.ar    1  UNL1        0.1314
     31 N         139.6893  142.0611  162.2244 N.ar    1  UNL1       -0.2251
@<TRIPOS>BOND
     1    15    16    1
     2    16    17   ar
     3    17    18   ar
     4    18    19   ar
     5    19    13    1
     6    13     1    1
     7     1     2   ar
     8     2     3   ar
     9     3     7    1
    10     7     8    1
    11     8     9    1
    12     9    10    1
    13    10    11    1
    14    11    12    1
    15     3     4   ar
    16     4     5   ar
    17     5    21    1
    18    21    23    1
    19    23    24    1
    20    23    25    1
    21    25    26   ar
    22    26    27   ar
    23    27    28   ar
    24    28    29    1
    25    28    30   ar
    26    30    31   ar
    27     5     6   ar
    28    19    20   ar
    29    20    16   ar
    30     6     1   ar
    31    12     7    1
    32    31    25   ar
    33    13    14    1
    34    21    22    1
@<TRIPOS>MOLECULE
*****
 31 34 0 0 0
SMALL
GASTEIGER

@<TRIPOS>ATOM
      1 C         143.2264  141.3641  165.4431 C.ar    1  UNL1        0.1393
      2 C         142.7858  141.7885  166.8127 C.ar    1  UNL1        0.0689
      3 C         141.7900  140.9611  167.5701 C.ar    1  UNL1        0.1375
      4 N         141.2348  139.7093  166.9579 N.ar    1  UNL1       -0.1988
      5 C         141.6753  139.2849  165.5884 C.ar    1  UNL1        0.2194
      6 N         142.6711  140.1123  164.8309 N.ar    1  UNL1       -0.1986
      7 N         141.3494  141.3854  168.9397 N.pl3   1  UNL1       -0.2879
      8 C         141.8159  140.6262  170.1464 C.3     1  UNL1        0.1242
      9 C         141.3753  141.0505  171.5160 C.3     1  UNL1        0.1636
     10 O         140.4683  142.2341  171.6790 O.3     1  UNL1       -0.3501
     11 C         140.0019  142.9933  170.4723 C.3     1  UNL1        0.1636
     12 C         140.4425  142.5690  169.1027 C.3     1  UNL1        0.1242
     13 N         144.2223  142.1915  164.6856 N.pl3   1  UNL1       -0.2780
     14 H         145.0511  142.4892  165.1257 H       1  UNL1        0.1555
     15 C         144.5287  142.4497  159.4206 C.3     1  UNL1        0.0399
     16 C         144.0961  142.6840  160.8376 C.ar    1  UNL1        0.0293
     17 C         142.9926  143.5972  161.2831 C.ar    1  UNL1        0.1030
     18 N         142.9056  143.5239  162.7788 N.ar    1  UNL1       -0.2228
     19 C         143.9553  142.5653  163.2577 C.ar    1  UNL1        0.1643
     20 S         144.6911  142.0463  162.0580 S.2     1  UNL1       -0.0557
     21 N         141.1200  138.0332  164.9762 N.pl3   1  UNL1       -0.2981
     22 H         141.7055  137.2554  164.8293 H       1  UNL1        0.1500
     23 C         139.6727  137.9663  164.5879 C.3     1  UNL1        0.1306
     24 C         138.6601  137.4323  165.5571 C.3     1  UNL1        0.0295
     25 C         139.2380  138.4335  163.2304 C.ar    1  UNL1        0.1570
     26 N         138.2692  139.5716  163.1035 N.ar    1  UNL1       -0.2251
     27 C         137.8345  140.0388  161.7461 C.ar    1  UNL1        0.1314
     28 C         138.3686  139.3678  160.5154 C.ar    1  UNL1        0.1783
     29 F         137.9339  139.8350  159.1579 F       1  UNL1       -0.2009
     30 C         139.3374  138.2297  160.6422 C.ar    1  UNL1        0.1314
     31 N         139.7721  137.7626  161.9997 N.ar    1  UNL1       -0.2251
@<TRIPOS>BOND
     1    15    16    1
     2    16    17   ar
     3    17    18   ar
     4    18    19   ar
     5    19    13    1
     6    13     1    1
     7     1     2   ar
     8     2     3   ar
     9     3     7    1
    10     7     8    1
    11     8     9    1
    12     9    10    1
    13    10    11    1
    14    11    12    1
    15     3     4   ar
    16     4     5   ar
    17     5    21    1
    18    21    23    1
    19    23    24    1
    20    23    25    1
    21    25    26   ar
    22    26    27   ar
    23    27    28   ar
    24    28    29    1
    25    28    30   ar
    26    30    31   ar
    27     5     6   ar
    28    19    20   ar
    29    20    16   ar
    30     6     1   ar
    31    12     7    1
    32    31    25   ar
    33    13    14    1
    34    21    22    1
