@<TRIPOS>MOLECULE
*****
 28 30 0 0 0
SMALL
GASTEIGER

@<TRIPOS>ATOM
      1 N         142.2992  137.8797  158.6177 N.3     1  UNL1       -0.2697
      2 C         142.9559  137.4208  159.8858 C.3     1  UNL1        0.0940
      3 C         142.3895  137.8283  161.2137 C.3     1  UNL1        0.1123
      4 N         141.1664  138.6946  161.2735 N.am    1  UNL1       -0.2611
      5 C         140.6001  139.1020  162.6013 C.2     1  UNL1        0.3078
      6 O         139.3770  139.9684  162.6611 O.2     1  UNL1       -0.2522
      7 N         141.2568  138.6431  163.8694 N.am    1  UNL1       -0.2681
      8 C         140.5097  139.1535  160.0053 C.3     1  UNL1        0.1123
      9 C         141.0760  138.7460  158.6775 C.3     1  UNL1        0.0940
     10 H         142.0596  138.0745  163.8302 H       1  UNL1        0.1564
     11 C         140.6904  139.0506  165.1973 C.ar    1  UNL1        0.0525
     12 C         141.4918  139.9213  166.1192 C.ar    1  UNL1        0.0156
     13 C         140.9255  140.3288  167.4470 C.ar    1  UNL1        0.0135
     14 C         139.5578  139.8655  167.8530 C.ar    1  UNL1        0.0683
     15 CL        138.9914  140.2730  169.1809 Cl      1  UNL1       -0.0814
     16 C         138.7565  138.9949  166.9312 C.ar    1  UNL1        0.0694
     17 CL        137.3887  138.5316  167.3373 Cl      1  UNL1       -0.0813
     18 C         139.3228  138.5874  165.6034 C.ar    1  UNL1        0.0270
     19 C         142.8655  137.4723  157.2899 C.3     1  UNL1        0.0735
     20 N         142.9744  133.5533  156.6737 N.3     1  UNL1       -0.2739
     21 C         141.9374  133.4062  155.6000 C.3     1  UNL1        0.0720
     22 C         141.2097  134.6145  155.0895 C.3     1  UNL1        0.0174
     23 C         141.5191  135.9698  155.6528 C.3     1  UNL1        0.0042
     24 C         142.5561  136.1169  156.7265 C.3     1  UNL1        0.0320
     25 C         143.2838  134.9086  157.2370 C.3     1  UNL1        0.0734
     26 C         145.0324  132.5004  157.8595 C.3     1  UNL1        0.0173
     27 C         143.7021  132.3450  157.1841 C.3     1  UNL1        0.0576
     28 C         143.0995  130.9813  157.0192 C.3     1  UNL1        0.0173
@<TRIPOS>BOND
     1    26    27    1
     2    27    28    1
     3    27    20    1
     4    20    21    1
     5    21    22    1
     6    22    23    1
     7    23    24    1
     8    24    19    1
     9    19     1    1
    10     1     2    1
    11     2     3    1
    12     3     4    1
    13     4     5   am
    14     5     6    2
    15     5     7   am
    16     7    11    1
    17    11    12   ar
    18    12    13   ar
    19    13    14   ar
    20    14    15    1
    21    14    16   ar
    22    16    17    1
    23    16    18   ar
    24     4     8    1
    25     8     9    1
    26    24    25    1
    27    25    20    1
    28     9     1    1
    29    18    11   ar
    30     7    10    1
@<TRIPOS>MOLECULE
*****
 28 30 0 0 0
SMALL
GASTEIGER

@<TRIPOS>ATOM
      1 N         142.2853  138.0477  158.9356 N.3     1  UNL1       -0.2697
      2 C         141.0043  138.7230  159.3265 C.3     1  UNL1        0.0940
      3 C         140.6734  138.9223  160.7760 C.3     1  UNL1        0.1123
      4 N         141.6237  138.4462  161.8345 N.am    1  UNL1       -0.2611
      5 C         141.2928  138.6455  163.2839 C.2     1  UNL1        0.3078
      6 O         142.2431  138.1694  164.3425 O.2     1  UNL1       -0.2522
      7 N         140.0117  139.3208  163.6748 N.am    1  UNL1       -0.2681
      8 C         142.9047  137.7709  161.4436 C.3     1  UNL1        0.1123
      9 C         143.2356  137.5717  159.9942 C.3     1  UNL1        0.0940
     10 H         139.3881  139.6332  162.9801 H       1  UNL1        0.1564
     11 C         139.6809  139.5200  165.1243 C.ar    1  UNL1        0.0525
     12 C         138.5687  138.7352  165.7545 C.ar    1  UNL1        0.0156
     13 C         138.2379  138.9344  167.2039 C.ar    1  UNL1        0.0135
     14 C         139.0192  139.9185  168.0231 C.ar    1  UNL1        0.0683
     15 CL        138.6884  140.1177  169.4726 Cl      1  UNL1       -0.0814
     16 C         140.1314  140.7033  167.3929 C.ar    1  UNL1        0.0694
     17 CL        140.9128  141.6873  168.2122 Cl      1  UNL1       -0.0813
     18 C         140.4623  140.5041  165.9435 C.ar    1  UNL1        0.0270
     19 C         142.6162  137.8484  157.4862 C.3     1  UNL1        0.0735
     20 N         142.7294  133.9849  156.5858 N.3     1  UNL1       -0.2739
     21 C         141.7069  133.9191  155.4904 C.3     1  UNL1        0.0720
     22 C         140.9875  135.1631  155.0602 C.3     1  UNL1        0.0174
     23 C         141.2905  136.4728  155.7254 C.3     1  UNL1        0.0042
     24 C         142.3130  136.5386  156.8209 C.3     1  UNL1        0.0320
     25 C         143.0325  135.2947  157.2511 C.3     1  UNL1        0.0734
     26 C         144.7279  132.8449  157.7926 C.3     1  UNL1        0.0173
     27 C         143.4488  132.7410  157.0161 C.3     1  UNL1        0.0576
     28 C         142.8891  131.3932  156.6697 C.3     1  UNL1        0.0173
@<TRIPOS>BOND
     1    26    27    1
     2    27    28    1
     3    27    20    1
     4    20    21    1
     5    21    22    1
     6    22    23    1
     7    23    24    1
     8    24    19    1
     9    19     1    1
    10     1     2    1
    11     2     3    1
    12     3     4    1
    13     4     5   am
    14     5     6    2
    15     5     7   am
    16     7    11    1
    17    11    12   ar
    18    12    13   ar
    19    13    14   ar
    20    14    15    1
    21    14    16   ar
    22    16    17    1
    23    16    18   ar
    24     4     8    1
    25     8     9    1
    26    24    25    1
    27    25    20    1
    28     9     1    1
    29    18    11   ar
    30     7    10    1
@<TRIPOS>MOLECULE
*****
 28 30 0 0 0
SMALL
GASTEIGER

@<TRIPOS>ATOM
      1 N         139.4537  138.1237  162.3029 N.3     1  UNL1       -0.2697
      2 C         138.0774  138.6415  162.0069 C.3     1  UNL1        0.0940
      3 C         137.7963  139.3192  160.6986 C.3     1  UNL1        0.1123
      4 N         138.8916  139.4792  159.6863 N.am    1  UNL1       -0.2611
      5 C         138.6106  140.1570  158.3780 C.2     1  UNL1        0.3078
      6 O         139.7059  140.3170  157.3657 O.2     1  UNL1       -0.2522
      7 N         137.2342  140.6747  158.0820 N.am    1  UNL1       -0.2681
      8 C         140.2679  138.9614  159.9823 C.3     1  UNL1        0.1123
      9 C         140.5490  138.2837  161.2906 C.3     1  UNL1        0.0940
     10 H         136.5153  140.5697  158.7464 H       1  UNL1        0.1564
     11 C         136.9532  141.3525  156.7737 C.ar    1  UNL1        0.0525
     12 C         136.3025  140.5893  155.6582 C.ar    1  UNL1        0.0156
     13 C         136.0215  141.2670  154.3499 C.ar    1  UNL1        0.0135
     14 C         136.3911  142.7079  154.1571 C.ar    1  UNL1        0.0683
     15 CL        136.1101  143.3857  152.8487 Cl      1  UNL1       -0.0814
     16 C         137.0418  143.4711  155.2725 C.ar    1  UNL1        0.0694
     17 CL        137.4114  144.9120  155.0796 Cl      1  UNL1       -0.0813
     18 C         137.3228  142.7934  156.5808 C.ar    1  UNL1        0.0270
     19 C         139.7348  137.4459  163.6112 C.3     1  UNL1        0.0735
     20 N         140.8234  139.7375  166.6631 N.3     1  UNL1       -0.2739
     21 C         139.5455  139.7917  167.4468 C.3     1  UNL1        0.0720
     22 C         138.3308  139.0640  166.9520 C.3     1  UNL1        0.0174
     23 C         138.3938  138.2821  165.6735 C.3     1  UNL1        0.0042
     24 C         139.6716  138.2279  164.8898 C.3     1  UNL1        0.0320
     25 C         140.8864  138.9555  165.3846 C.3     1  UNL1        0.0734
     26 C         142.6245  140.1228  168.4954 C.3     1  UNL1        0.0173
     27 C         142.0381  140.4651  167.1579 C.3     1  UNL1        0.0576
     28 C         142.6665  141.5351  166.3152 C.3     1  UNL1        0.0173
@<TRIPOS>BOND
     1    26    27    1
     2    27    28    1
     3    27    20    1
     4    20    21    1
     5    21    22    1
     6    22    23    1
     7    23    24    1
     8    24    19    1
     9    19     1    1
    10     1     2    1
    11     2     3    1
    12     3     4    1
    13     4     5   am
    14     5     6    2
    15     5     7   am
    16     7    11    1
    17    11    12   ar
    18    12    13   ar
    19    13    14   ar
    20    14    15    1
    21    14    16   ar
    22    16    17    1
    23    16    18   ar
    24     4     8    1
    25     8     9    1
    26    24    25    1
    27    25    20    1
    28     9     1    1
    29    18    11   ar
    30     7    10    1
@<TRIPOS>MOLECULE
*****
 28 30 0 0 0
SMALL
GASTEIGER

@<TRIPOS>ATOM
      1 N         141.7773  136.6368  156.4903 N.3     1  UNL1       -0.2697
      2 C         140.3524  137.0907  156.6079 C.3     1  UNL1        0.0940
      3 C         139.9406  137.9827  157.7414 C.3     1  UNL1        0.1123
      4 N         140.9535  138.4209  158.7572 N.am    1  UNL1       -0.2611
      5 C         140.5416  139.3129  159.8906 C.2     1  UNL1        0.3078
      6 O         141.5546  139.7511  160.9065 O.2     1  UNL1       -0.2522
      7 N         139.1168  139.7668  160.0081 N.am    1  UNL1       -0.2681
      8 C         142.3783  137.9670  158.6396 C.3     1  UNL1        0.1123
      9 C         142.7902  137.0750  157.5062 C.3     1  UNL1        0.0940
     10 H         138.4519  139.4792  159.3414 H       1  UNL1        0.1564
     11 C         138.7049  140.6588  161.1416 C.ar    1  UNL1        0.0525
     12 C         138.4218  142.1101  160.8891 C.ar    1  UNL1        0.0156
     13 C         138.0100  143.0021  162.0225 C.ar    1  UNL1        0.0135
     14 C         137.8812  142.4429  163.4083 C.ar    1  UNL1        0.0683
     15 CL        137.4693  143.3350  164.5418 Cl      1  UNL1       -0.0814
     16 C         138.1643  140.9917  163.6608 C.ar    1  UNL1        0.0694
     17 CL        138.0355  140.4325  165.0468 Cl      1  UNL1       -0.0813
     18 C         138.5761  140.0996  162.5275 C.ar    1  UNL1        0.0270
     19 C         142.1892  135.7448  155.3570 C.3     1  UNL1        0.0735
     20 N         143.3166  132.1604  156.6341 N.3     1  UNL1       -0.2739
     21 C         142.3186  131.2842  155.9369 C.3     1  UNL1        0.0720
     22 C         141.2774  131.8948  155.0464 C.3     1  UNL1        0.0174
     23 C         141.2343  133.3816  154.8530 C.3     1  UNL1        0.0042
     24 C         142.2323  134.2578  155.5503 C.3     1  UNL1        0.0320
     25 C         143.2735  133.6472  156.4408 C.3     1  UNL1        0.0734
     26 C         145.4720  132.3959  158.0655 C.3     1  UNL1        0.0173
     27 C         144.3578  131.5498  157.5247 C.3     1  UNL1        0.0576
     28 C         144.2848  130.0930  157.8744 C.3     1  UNL1        0.0173
@<TRIPOS>BOND
     1    26    27    1
     2    27    28    1
     3    27    20    1
     4    20    21    1
     5    21    22    1
     6    22    23    1
     7    23    24    1
     8    24    19    1
     9    19     1    1
    10     1     2    1
    11     2     3    1
    12     3     4    1
    13     4     5   am
    14     5     6    2
    15     5     7   am
    16     7    11    1
    17    11    12   ar
    18    12    13   ar
    19    13    14   ar
    20    14    15    1
    21    14    16   ar
    22    16    17    1
    23    16    18   ar
    24     4     8    1
    25     8     9    1
    26    24    25    1
    27    25    20    1
    28     9     1    1
    29    18    11   ar
    30     7    10    1
@<TRIPOS>MOLECULE
*****
 28 30 0 0 0
SMALL
GASTEIGER

@<TRIPOS>ATOM
      1 N         142.1915  139.5652  159.3504 N.3     1  UNL1       -0.2697
      2 C         141.1009  139.9175  160.3181 C.3     1  UNL1        0.0940
      3 C         141.4261  140.1429  161.7650 C.3     1  UNL1        0.1123
      4 N         142.8417  140.0158  162.2442 N.am    1  UNL1       -0.2611
      5 C         143.1668  140.2411  163.6911 C.2     1  UNL1        0.3078
      6 O         144.5826  140.1140  164.1703 O.2     1  UNL1       -0.2522
      7 N         142.0762  140.5935  164.6588 N.am    1  UNL1       -0.2681
      8 C         143.9323  139.6634  161.2765 C.3     1  UNL1        0.1123
      9 C         143.6072  139.4381  159.8296 C.3     1  UNL1        0.0940
     10 H         141.1470  140.6769  164.3443 H       1  UNL1        0.1564
     11 C         142.4014  140.8188  166.1057 C.ar    1  UNL1        0.0525
     12 C         142.8470  142.1730  166.5722 C.ar    1  UNL1        0.0156
     13 C         143.1721  142.3983  168.0191 C.ar    1  UNL1        0.0135
     14 C         143.0517  141.2695  168.9994 C.ar    1  UNL1        0.0683
     15 CL        143.3768  141.4948  170.4464 Cl      1  UNL1       -0.0814
     16 C         142.6061  139.9153  168.5329 C.ar    1  UNL1        0.0694
     17 CL        142.4856  138.7864  169.5134 Cl      1  UNL1       -0.0813
     18 C         142.2809  139.6899  167.0861 C.ar    1  UNL1        0.0270
     19 C         141.8664  139.3399  157.9035 C.3     1  UNL1        0.0735
     20 N         143.3123  135.9064  156.5356 N.3     1  UNL1       -0.2739
     21 C         144.2681  136.3981  155.4894 C.3     1  UNL1        0.0720
     22 C         144.4234  137.8703  155.2478 C.3     1  UNL1        0.0174
     23 C         143.6228  138.8509  156.0525 C.3     1  UNL1        0.0042
     24 C         142.6670  138.3593  157.0987 C.3     1  UNL1        0.0320
     25 C         142.5118  136.8870  157.3403 C.3     1  UNL1        0.0734
     26 C         142.2620  133.6191  155.8915 C.3     1  UNL1        0.0173
     27 C         143.1571  134.4342  156.7772 C.3     1  UNL1        0.0576
     28 C         143.8968  133.7770  157.9045 C.3     1  UNL1        0.0173
@<TRIPOS>BOND
     1    26    27    1
     2    27    28    1
     3    27    20    1
     4    20    21    1
     5    21    22    1
     6    22    23    1
     7    23    24    1
     8    24    19    1
     9    19     1    1
    10     1     2    1
    11     2     3    1
    12     3     4    1
    13     4     5   am
    14     5     6    2
    15     5     7   am
    16     7    11    1
    17    11    12   ar
    18    12    13   ar
    19    13    14   ar
    20    14    15    1
    21    14    16   ar
    22    16    17    1
    23    16    18   ar
    24     4     8    1
    25     8     9    1
    26    24    25    1
    27    25    20    1
    28     9     1    1
    29    18    11   ar
    30     7    10    1
@<TRIPOS>MOLECULE
*****
 28 30 0 0 0
SMALL
GASTEIGER

@<TRIPOS>ATOM
      1 N         139.7254  143.7854  164.4231 N.3     1  UNL1       -0.2697
      2 C         140.6730  144.7997  163.8544 C.3     1  UNL1        0.0940
      3 C         140.7627  144.9924  162.3695 C.3     1  UNL1        0.1123
      4 N         139.9050  144.1709  161.4533 N.am    1  UNL1       -0.2611
      5 C         139.9948  144.3636  159.9685 C.2     1  UNL1        0.3078
      6 O         139.1370  143.5421  159.0523 O.2     1  UNL1       -0.2522
      7 N         140.9423  145.3779  159.3998 N.am    1  UNL1       -0.2681
      8 C         138.9574  143.1566  162.0220 C.3     1  UNL1        0.1123
      9 C         138.8676  142.9639  163.5068 C.3     1  UNL1        0.0940
     10 H         141.5053  145.9171  160.0011 H       1  UNL1        0.1564
     11 C         141.0321  145.5706  157.9149 C.ar    1  UNL1        0.0525
     12 C         142.1399  144.9209  157.1399 C.ar    1  UNL1        0.0156
     13 C         142.2297  145.1136  155.6551 C.ar    1  UNL1        0.0135
     14 C         141.2117  145.9560  154.9453 C.ar    1  UNL1        0.0683
     15 CL        141.3015  146.1488  153.4604 Cl      1  UNL1       -0.0814
     16 C         140.1039  146.6058  155.7202 C.ar    1  UNL1        0.0694
     17 CL        139.0859  147.4482  155.0103 Cl      1  UNL1       -0.0813
     18 C         140.0141  146.4131  157.2051 C.ar    1  UNL1        0.0270
     19 C         139.6356  143.5926  165.9079 C.3     1  UNL1        0.0735
     20 N         142.4305  140.8396  166.5074 N.3     1  UNL1       -0.2739
     21 C         142.5414  140.8692  168.0029 C.3     1  UNL1        0.0720
     22 C         141.6837  141.8066  168.8002 C.3     1  UNL1        0.0174
     23 C         140.7151  142.7144  168.1019 C.3     1  UNL1        0.0042
     24 C         140.6042  142.6848  166.6063 C.3     1  UNL1        0.0320
     25 C         141.4620  141.7474  165.8090 C.3     1  UNL1        0.0734
     26 C         144.0333  140.4050  164.5093 C.3     1  UNL1        0.0173
     27 C         143.2882  139.9022  165.7101 C.3     1  UNL1        0.0576
     28 C         143.4009  138.4619  166.1137 C.3     1  UNL1        0.0173
@<TRIPOS>BOND
     1    26    27    1
     2    27    28    1
     3    27    20    1
     4    20    21    1
     5    21    22    1
     6    22    23    1
     7    23    24    1
     8    24    19    1
     9    19     1    1
    10     1     2    1
    11     2     3    1
    12     3     4    1
    13     4     5   am
    14     5     6    2
    15     5     7   am
    16     7    11    1
    17    11    12   ar
    18    12    13   ar
    19    13    14   ar
    20    14    15    1
    21    14    16   ar
    22    16    17    1
    23    16    18   ar
    24     4     8    1
    25     8     9    1
    26    24    25    1
    27    25    20    1
    28     9     1    1
    29    18    11   ar
    30     7    10    1
@<TRIPOS>MOLECULE
*****
 28 30 0 0 0
SMALL
GASTEIGER

@<TRIPOS>ATOM
      1 N         139.7976  140.8923  157.3280 N.3     1  UNL1       -0.2697
      2 C         139.1300  139.5509  157.2564 C.3     1  UNL1        0.0940
      3 C         139.9484  138.3181  157.0099 C.3     1  UNL1        0.1123
      4 N         141.4341  138.4268  156.8348 N.am    1  UNL1       -0.2611
      5 C         142.2524  137.1941  156.5883 C.2     1  UNL1        0.3078
      6 O         143.7382  137.3027  156.4132 O.2     1  UNL1       -0.2522
      7 N         141.5848  135.8527  156.5167 N.am    1  UNL1       -0.2681
      8 C         142.1016  139.7682  156.9064 C.3     1  UNL1        0.1123
      9 C         141.2834  141.0009  157.1530 C.3     1  UNL1        0.0940
     10 H         140.6097  135.7814  156.6316 H       1  UNL1        0.1564
     11 C         142.4032  134.6199  156.2701 C.ar    1  UNL1        0.0525
     12 C         142.2137  133.8343  155.0064 C.ar    1  UNL1        0.0156
     13 C         143.0319  132.6016  154.7598 C.ar    1  UNL1        0.0135
     14 C         144.0397  132.1545  155.7769 C.ar    1  UNL1        0.0683
     15 CL        144.8580  130.9218  155.5303 Cl      1  UNL1       -0.0814
     16 C         144.2292  132.9401  157.0406 C.ar    1  UNL1        0.0694
     17 CL        145.2370  132.4929  158.0577 Cl      1  UNL1       -0.0813
     18 C         143.4109  134.1728  157.2872 C.ar    1  UNL1        0.0270
     19 C         138.9793  142.1250  157.5746 C.3     1  UNL1        0.0735
     20 N         138.7092  143.3538  161.3385 N.3     1  UNL1       -0.2739
     21 C         139.6238  144.5424  161.3149 C.3     1  UNL1        0.0720
     22 C         140.3236  144.9253  160.0446 C.3     1  UNL1        0.0174
     23 C         140.1088  144.1195  158.7978 C.3     1  UNL1        0.0042
     24 C         139.1942  142.9308  158.8214 C.3     1  UNL1        0.0320
     25 C         138.4944  142.5480  160.0917 C.3     1  UNL1        0.0734
     26 C         137.4238  141.5981  162.7581 C.3     1  UNL1        0.0173
     27 C         138.0094  142.9710  162.6088 C.3     1  UNL1        0.0576
     28 C         137.8952  143.9610  163.7299 C.3     1  UNL1        0.0173
@<TRIPOS>BOND
     1    26    27    1
     2    27    28    1
     3    27    20    1
     4    20    21    1
     5    21    22    1
     6    22    23    1
     7    23    24    1
     8    24    19    1
     9    19     1    1
    10     1     2    1
    11     2     3    1
    12     3     4    1
    13     4     5   am
    14     5     6    2
    15     5     7   am
    16     7    11    1
    17    11    12   ar
    18    12    13   ar
    19    13    14   ar
    20    14    15    1
    21    14    16   ar
    22    16    17    1
    23    16    18   ar
    24     4     8    1
    25     8     9    1
    26    24    25    1
    27    25    20    1
    28     9     1    1
    29    18    11   ar
    30     7    10    1
@<TRIPOS>MOLECULE
*****
 28 30 0 0 0
SMALL
GASTEIGER

@<TRIPOS>ATOM
      1 N         141.9458  136.9410  156.7030 N.3     1  UNL1       -0.2697
      2 C         142.6716  137.5332  157.8746 C.3     1  UNL1        0.0940
      3 C         141.9397  138.4147  158.8427 C.3     1  UNL1        0.1123
      4 N         140.4821  138.7041  158.6392 N.am    1  UNL1       -0.2611
      5 C         139.7502  139.5857  159.6073 C.2     1  UNL1        0.3078
      6 O         138.2925  139.8751  159.4038 O.2     1  UNL1       -0.2522
      7 N         140.4760  140.1778  160.7789 N.am    1  UNL1       -0.2681
      8 C         139.7563  138.1120  157.4676 C.3     1  UNL1        0.1123
      9 C         140.4881  137.2305  156.4995 C.3     1  UNL1        0.0940
     10 H         141.4328  139.9879  160.9124 H       1  UNL1        0.1564
     11 C         139.7441  141.0594  161.7470 C.ar    1  UNL1        0.0525
     12 C         138.9603  140.4500  162.8714 C.ar    1  UNL1        0.0156
     13 C         138.2285  141.3315  163.8395 C.ar    1  UNL1        0.0135
     14 C         138.2803  142.8224  163.6831 C.ar    1  UNL1        0.0683
     15 CL        137.5484  143.7040  164.6513 Cl      1  UNL1       -0.0814
     16 C         139.0641  143.4318  162.5587 C.ar    1  UNL1        0.0694
     17 CL        139.1160  144.9228  162.4024 Cl      1  UNL1       -0.0813
     18 C         139.7960  142.5503  161.5906 C.ar    1  UNL1        0.0270
     19 C         142.6777  136.0595  155.7349 C.3     1  UNL1        0.0735
     20 N         143.4834  132.3219  156.7988 N.3     1  UNL1       -0.2739
     21 C         142.3805  131.5841  156.0993 C.3     1  UNL1        0.0720
     22 C         141.3767  132.3380  155.2784 C.3     1  UNL1        0.0174
     23 C         141.4757  133.8298  155.1569 C.3     1  UNL1        0.0042
     24 C         142.5786  134.5676  155.8564 C.3     1  UNL1        0.0320
     25 C         143.5824  133.8137  156.6773 C.3     1  UNL1        0.0734
     26 C         145.6863  132.2774  158.1753 C.3     1  UNL1        0.0173
     27 C         144.4872  131.5680  157.6198 C.3     1  UNL1        0.0576
     28 C         144.2918  130.1047  157.8852 C.3     1  UNL1        0.0173
@<TRIPOS>BOND
     1    26    27    1
     2    27    28    1
     3    27    20    1
     4    20    21    1
     5    21    22    1
     6    22    23    1
     7    23    24    1
     8    24    19    1
     9    19     1    1
    10     1     2    1
    11     2     3    1
    12     3     4    1
    13     4     5   am
    14     5     6    2
    15     5     7   am
    16     7    11    1
    17    11    12   ar
    18    12    13   ar
    19    13    14   ar
    20    14    15    1
    21    14    16   ar
    22    16    17    1
    23    16    18   ar
    24     4     8    1
    25     8     9    1
    26    24    25    1
    27    25    20    1
    28     9     1    1
    29    18    11   ar
    30     7    10    1
@<TRIPOS>MOLECULE
*****
 28 30 0 0 0
SMALL
GASTEIGER

@<TRIPOS>ATOM
      1 N         141.0253  145.0239  160.0894 N.3     1  UNL1       -0.2697
      2 C         141.7574  143.8429  160.6545 C.3     1  UNL1        0.0940
      3 C         141.4291  143.3454  162.0310 C.3     1  UNL1        0.1123
      4 N         140.3688  144.0289  162.8424 N.am    1  UNL1       -0.2611
      5 C         140.0406  143.5315  164.2189 C.2     1  UNL1        0.3078
      6 O         138.9802  144.2150  165.0304 O.2     1  UNL1       -0.2522
      7 N         140.7727  142.3504  164.7839 N.am    1  UNL1       -0.2681
      8 C         139.6367  145.2100  162.2774 C.3     1  UNL1        0.1123
      9 C         139.9650  145.7074  160.9009 C.3     1  UNL1        0.0940
     10 H         141.4686  141.9018  164.2514 H       1  UNL1        0.1564
     11 C         140.4444  141.8530  166.1605 C.ar    1  UNL1        0.0525
     12 C         139.7655  140.5271  166.3367 C.ar    1  UNL1        0.0156
     13 C         139.4372  140.0296  167.7131 C.ar    1  UNL1        0.0135
     14 C         139.7878  140.8580  168.9134 C.ar    1  UNL1        0.0683
     15 CL        139.4595  140.3605  170.2900 Cl      1  UNL1       -0.0814
     16 C         140.4668  142.1839  168.7372 C.ar    1  UNL1        0.0694
     17 CL        140.8174  143.0123  169.9376 Cl      1  UNL1       -0.0813
     18 C         140.7950  142.6814  167.3608 C.ar    1  UNL1        0.0270
     19 C         141.3536  145.5214  158.7130 C.3     1  UNL1        0.0735
     20 N         138.7288  143.9259  156.2000 N.3     1  UNL1       -0.2739
     21 C         138.3333  145.1315  155.4000 C.3     1  UNL1        0.0720
     22 C         138.9445  146.4671  155.7043 C.3     1  UNL1        0.0174
     23 C         139.9513  146.5971  156.8086 C.3     1  UNL1        0.0042
     24 C         140.3468  145.3915  157.6086 C.3     1  UNL1        0.0320
     25 C         139.7355  144.0559  157.3043 C.3     1  UNL1        0.0734
     26 C         136.6416  142.4789  155.6523 C.3     1  UNL1        0.0173
     27 C         138.1175  142.5903  155.8957 C.3     1  UNL1        0.0576
     28 C         138.9822  141.3662  155.8347 C.3     1  UNL1        0.0173
@<TRIPOS>BOND
     1    26    27    1
     2    27    28    1
     3    27    20    1
     4    20    21    1
     5    21    22    1
     6    22    23    1
     7    23    24    1
     8    24    19    1
     9    19     1    1
    10     1     2    1
    11     2     3    1
    12     3     4    1
    13     4     5   am
    14     5     6    2
    15     5     7   am
    16     7    11    1
    17    11    12   ar
    18    12    13   ar
    19    13    14   ar
    20    14    15    1
    21    14    16   ar
    22    16    17    1
    23    16    18   ar
    24     4     8    1
    25     8     9    1
    26    24    25    1
    27    25    20    1
    28     9     1    1
    29    18    11   ar
    30     7    10    1
