@<TRIPOS>MOLECULE
*****
 15 16 0 0 0
SMALL
GASTEIGER

@<TRIPOS>ATOM
      1 C         140.1019  140.9602  167.1337 C.3     1  UNL1        0.0344
      2 C         139.2279  141.1293  165.9264 C.ar    1  UNL1        0.0185
      3 C         138.3692  140.0685  165.3040 C.ar    1  UNL1        0.1768
      4 O         137.6697  140.6725  164.1226 O.2     1  UNL1       -0.4509
      5 C         138.0961  142.1066  164.0148 C.ar    1  UNL1        0.1451
      6 C         137.7318  143.1918  163.0455 C.ar    1  UNL1        0.0375
      7 C         138.3306  144.5594  163.1911 C.ar    1  UNL1        0.0031
      8 C         139.2936  144.8417  164.3059 C.ar    1  UNL1        0.0002
      9 C         139.6579  143.7564  165.2752 C.ar    1  UNL1        0.0028
     10 C         139.0591  142.3889  165.1296 C.ar    1  UNL1        0.0336
     11 C         138.2338  138.6523  165.7796 C.2     1  UNL1        0.2221
     12 O         137.3334  138.3323  166.9359 O.2     1  UNL1       -0.2870
     13 C         138.9986  137.5562  165.0989 C.3     1  UNL1        0.1773
     14 C         139.3559  137.6805  163.6474 C.1     1  UNL1        0.0816
     15 N         139.7132  137.8049  162.1959 N.1     1  UNL1       -0.1954
@<TRIPOS>BOND
     1     1     2    1
     2     2     3   ar
     3     3    11    1
     4    11    12    2
     5    11    13    1
     6    13    14    1
     7    14    15    3
     8     3     4   ar
     9     4     5   ar
    10     5     6   ar
    11     6     7   ar
    12     7     8   ar
    13     8     9   ar
    14     9    10   ar
    15    10     2   ar
    16    10     5   ar
@<TRIPOS>MOLECULE
*****
 15 16 0 0 0
SMALL
GASTEIGER

@<TRIPOS>ATOM
      1 C         139.4341  140.3896  169.9802 C.3     1  UNL1        0.0344
      2 C         140.2476  140.2071  168.7332 C.ar    1  UNL1        0.0185
      3 C         141.7034  140.5320  168.5747 C.ar    1  UNL1        0.1768
      4 O         142.1036  140.1934  167.1693 O.2     1  UNL1       -0.4509
      5 C         140.8951  139.6593  166.4592 C.ar    1  UNL1        0.1451
      6 C         140.6910  139.1663  165.0573 C.ar    1  UNL1        0.0375
      7 C         139.3398  138.6818  164.6220 C.ar    1  UNL1        0.0031
      8 C         138.1927  138.6903  165.5885 C.ar    1  UNL1        0.0002
      9 C         138.3968  139.1833  166.9903 C.ar    1  UNL1        0.0028
     10 C         139.7480  139.6678  167.4257 C.ar    1  UNL1        0.0336
     11 C         142.6014  141.0963  169.6355 C.2     1  UNL1        0.2221
     12 O         143.3774  140.1750  170.5293 O.2     1  UNL1       -0.2870
     13 C         142.7233  142.5820  169.8024 C.3     1  UNL1        0.1773
     14 C         141.4918  143.4211  169.9731 C.1     1  UNL1        0.0816
     15 N         140.2602  144.2603  170.1438 N.1     1  UNL1       -0.1954
@<TRIPOS>BOND
     1     1     2    1
     2     2     3   ar
     3     3    11    1
     4    11    12    2
     5    11    13    1
     6    13    14    1
     7    14    15    3
     8     3     4   ar
     9     4     5   ar
    10     5     6   ar
    11     6     7   ar
    12     7     8   ar
    13     8     9   ar
    14     9    10   ar
    15    10     2   ar
    16    10     5   ar
@<TRIPOS>MOLECULE
*****
 15 16 0 0 0
SMALL
GASTEIGER

@<TRIPOS>ATOM
      1 C         142.7399  139.5072  167.4981 C.3     1  UNL1        0.0344
      2 C         141.3860  139.5394  166.8531 C.ar    1  UNL1        0.0185
      3 C         140.2058  140.3388  167.3199 C.ar    1  UNL1        0.1768
      4 O         139.0651  140.0712  166.3833 O.2     1  UNL1       -0.4509
      5 C         139.5403  139.1064  165.3377 C.ar    1  UNL1        0.1451
      6 C         138.8523  138.4846  164.1587 C.ar    1  UNL1        0.0375
      7 C         139.5987  137.5343  163.2701 C.ar    1  UNL1        0.0031
      8 C         141.0331  137.2056  163.5605 C.ar    1  UNL1        0.0002
      9 C         141.7212  137.8273  164.7395 C.ar    1  UNL1        0.0028
     10 C         140.9748  138.7777  165.6281 C.ar    1  UNL1        0.0336
     11 C         140.1721  141.2465  168.5136 C.2     1  UNL1        0.2221
     12 O         139.4739  140.8108  169.7676 O.2     1  UNL1       -0.2870
     13 C         140.8366  142.5899  168.4533 C.3     1  UNL1        0.1773
     14 C         140.4314  143.6707  169.4111 C.1     1  UNL1        0.0816
     15 N         140.0261  144.7516  170.3690 N.1     1  UNL1       -0.1954
@<TRIPOS>BOND
     1     1     2    1
     2     2     3   ar
     3     3    11    1
     4    11    12    2
     5    11    13    1
     6    13    14    1
     7    14    15    3
     8     3     4   ar
     9     4     5   ar
    10     5     6   ar
    11     6     7   ar
    12     7     8   ar
    13     8     9   ar
    14     9    10   ar
    15    10     2   ar
    16    10     5   ar
@<TRIPOS>MOLECULE
*****
 15 16 0 0 0
SMALL
GASTEIGER

@<TRIPOS>ATOM
      1 C         138.5960  139.3630  165.8442 C.3     1  UNL1        0.0344
      2 C         139.1353  140.7565  165.9753 C.ar    1  UNL1        0.0185
      3 C         140.1126  141.2301  167.0100 C.ar    1  UNL1        0.1768
      4 O         140.3732  142.6874  166.7688 O.2     1  UNL1       -0.4509
      5 C         139.5569  143.1146  165.5850 C.ar    1  UNL1        0.1451
      6 C         139.4115  144.4360  164.8903 C.ar    1  UNL1        0.0375
      7 C         138.5011  144.5640  163.7052 C.ar    1  UNL1        0.0031
      8 C         137.7360  143.3707  163.2147 C.ar    1  UNL1        0.0002
      9 C         137.8814  142.0493  163.9094 C.ar    1  UNL1        0.0028
     10 C         138.7919  141.9212  165.0946 C.ar    1  UNL1        0.0336
     11 C         140.7222  140.3932  168.0953 C.2     1  UNL1        0.2221
     12 O         142.0497  139.7305  167.8753 O.2     1  UNL1       -0.2870
     13 C         140.0043  140.2190  169.4008 C.3     1  UNL1        0.1773
     14 C         140.3143  141.1265  170.5542 C.1     1  UNL1        0.0816
     15 N         140.6244  142.0339  171.7076 N.1     1  UNL1       -0.1954
@<TRIPOS>BOND
     1     1     2    1
     2     2     3   ar
     3     3    11    1
     4    11    12    2
     5    11    13    1
     6    13    14    1
     7    14    15    3
     8     3     4   ar
     9     4     5   ar
    10     5     6   ar
    11     6     7   ar
    12     7     8   ar
    13     8     9   ar
    14     9    10   ar
    15    10     2   ar
    16    10     5   ar
@<TRIPOS>MOLECULE
*****
 15 16 0 0 0
SMALL
GASTEIGER

@<TRIPOS>ATOM
      1 C         142.0167  138.0463  165.2587 C.3     1  UNL1        0.0344
      2 C         142.2330  139.5063  165.5261 C.ar    1  UNL1        0.0185
      3 C         141.3622  140.3859  166.3734 C.ar    1  UNL1        0.1768
      4 O         141.9491  141.7663  166.3640 O.2     1  UNL1       -0.4509
      5 C         143.1826  141.7399  165.5108 C.ar    1  UNL1        0.1451
      6 C         144.1686  142.8071  165.1386 C.ar    1  UNL1        0.0375
      7 C         145.3301  142.4776  164.2485 C.ar    1  UNL1        0.0031
      8 C         145.5055  141.0809  163.7306 C.ar    1  UNL1        0.0002
      9 C         144.5195  140.0136  164.1028 C.ar    1  UNL1        0.0028
     10 C         143.3580  140.3431  164.9929 C.ar    1  UNL1        0.0336
     11 C         140.1223  139.9600  167.1023 C.2     1  UNL1        0.2221
     12 O         140.1213  139.8850  168.6004 O.2     1  UNL1       -0.2870
     13 C         138.8834  139.6089  166.3330 C.3     1  UNL1        0.1773
     14 C         137.8807  138.6595  166.9187 C.1     1  UNL1        0.0816
     15 N         136.8780  137.7100  167.5045 N.1     1  UNL1       -0.1954
@<TRIPOS>BOND
     1     1     2    1
     2     2     3   ar
     3     3    11    1
     4    11    12    2
     5    11    13    1
     6    13    14    1
     7    14    15    3
     8     3     4   ar
     9     4     5   ar
    10     5     6   ar
    11     6     7   ar
    12     7     8   ar
    13     8     9   ar
    14     9    10   ar
    15    10     2   ar
    16    10     5   ar
@<TRIPOS>MOLECULE
*****
 15 16 0 0 0
SMALL
GASTEIGER

@<TRIPOS>ATOM
      1 C         138.5770  142.8548  164.9392 C.3     1  UNL1        0.0344
      2 C         140.0064  142.5946  165.3122 C.ar    1  UNL1        0.0185
      3 C         140.4951  141.5145  166.2312 C.ar    1  UNL1        0.1768
      4 O         141.9888  141.6211  166.3187 O.2     1  UNL1       -0.4509
      5 C         142.4231  142.7671  165.4537 C.ar    1  UNL1        0.1451
      6 C         143.7760  143.3405  165.1522 C.ar    1  UNL1        0.0375
      7 C         143.9037  144.5154  164.2286 C.ar    1  UNL1        0.0031
      8 C         142.6785  145.1171  163.6066 C.ar    1  UNL1        0.0002
      9 C         141.3256  144.5437  163.9081 C.ar    1  UNL1        0.0028
     10 C         141.1979  143.3687  164.8317 C.ar    1  UNL1        0.0336
     11 C         139.6403  140.5051  166.9386 C.2     1  UNL1        0.2221
     12 O         139.5321  140.5304  168.4344 O.2     1  UNL1       -0.2870
     13 C         138.8937  139.4703  166.1501 C.3     1  UNL1        0.1773
     14 C         137.8763  138.6009  166.8276 C.1     1  UNL1        0.0816
     15 N         136.8589  137.7315  167.5051 N.1     1  UNL1       -0.1954
@<TRIPOS>BOND
     1     1     2    1
     2     2     3   ar
     3     3    11    1
     4    11    12    2
     5    11    13    1
     6    13    14    1
     7    14    15    3
     8     3     4   ar
     9     4     5   ar
    10     5     6   ar
    11     6     7   ar
    12     7     8   ar
    13     8     9   ar
    14     9    10   ar
    15    10     2   ar
    16    10     5   ar
@<TRIPOS>MOLECULE
*****
 15 16 0 0 0
SMALL
GASTEIGER

@<TRIPOS>ATOM
      1 C         142.7809  140.6147  166.4613 C.3     1  UNL1        0.0344
      2 C         141.7495  141.5842  165.9650 C.ar    1  UNL1        0.0185
      3 C         140.2669  141.4727  166.1637 C.ar    1  UNL1        0.1768
      4 O         139.6208  142.6550  165.5044 O.2     1  UNL1       -0.4509
      5 C         140.7041  143.4971  164.8982 C.ar    1  UNL1        0.1451
      6 C         140.6624  144.7811  164.1238 C.ar    1  UNL1        0.0375
      7 C         141.9364  145.4032  163.6341 C.ar    1  UNL1        0.0031
      8 C         143.2521  144.7413  163.9188 C.ar    1  UNL1        0.0002
      9 C         143.2937  143.4574  164.6932 C.ar    1  UNL1        0.0028
     10 C         142.0197  142.8353  165.1829 C.ar    1  UNL1        0.0336
     11 C         139.5554  140.3723  166.8936 C.2     1  UNL1        0.2221
     12 O         139.7789  140.1810  168.3644 O.2     1  UNL1       -0.2870
     13 C         138.6204  139.4631  166.1526 C.3     1  UNL1        0.1773
     14 C         137.7096  138.5440  166.9113 C.1     1  UNL1        0.0816
     15 N         136.7987  137.6250  167.6701 N.1     1  UNL1       -0.1954
@<TRIPOS>BOND
     1     1     2    1
     2     2     3   ar
     3     3    11    1
     4    11    12    2
     5    11    13    1
     6    13    14    1
     7    14    15    3
     8     3     4   ar
     9     4     5   ar
    10     5     6   ar
    11     6     7   ar
    12     7     8   ar
    13     8     9   ar
    14     9    10   ar
    15    10     2   ar
    16    10     5   ar
@<TRIPOS>MOLECULE
*****
 15 16 0 0 0
SMALL
GASTEIGER

@<TRIPOS>ATOM
      1 C         137.6740  138.3527  166.8842 C.3     1  UNL1        0.0344
      2 C         138.6578  139.4380  166.5611 C.ar    1  UNL1        0.0185
      3 C         139.0836  139.8614  165.1866 C.ar    1  UNL1        0.1768
      4 O         140.0774  140.9755  165.3319 O.2     1  UNL1       -0.4509
      5 C         140.2658  141.2406  166.7962 C.ar    1  UNL1        0.1451
      6 C         141.1229  142.2246  167.5359 C.ar    1  UNL1        0.0375
      7 C         141.1025  142.2583  169.0354 C.ar    1  UNL1        0.0031
      8 C         140.2251  141.3081  169.7951 C.ar    1  UNL1        0.0002
      9 C         139.3680  140.3241  169.0554 C.ar    1  UNL1        0.0028
     10 C         139.3883  140.2904  167.5559 C.ar    1  UNL1        0.0336
     11 C         138.6005  139.2738  163.8938 C.2     1  UNL1        0.2221
     12 O         137.7085  140.0752  162.9927 O.2     1  UNL1       -0.2870
     13 C         139.0094  137.8848  163.5020 C.3     1  UNL1        0.1773
     14 C         140.2662  137.6675  162.7126 C.1     1  UNL1        0.0816
     15 N         141.5230  137.4502  161.9231 N.1     1  UNL1       -0.1954
@<TRIPOS>BOND
     1     1     2    1
     2     2     3   ar
     3     3    11    1
     4    11    12    2
     5    11    13    1
     6    13    14    1
     7    14    15    3
     8     3     4   ar
     9     4     5   ar
    10     5     6   ar
    11     6     7   ar
    12     7     8   ar
    13     8     9   ar
    14     9    10   ar
    15    10     2   ar
    16    10     5   ar
@<TRIPOS>MOLECULE
*****
 15 16 0 0 0
SMALL
GASTEIGER

@<TRIPOS>ATOM
      1 C         137.8433  139.7600  162.2942 C.3     1  UNL1        0.0344
      2 C         138.5880  140.4030  163.4264 C.ar    1  UNL1        0.0185
      3 C         139.5094  139.7068  164.3837 C.ar    1  UNL1        0.1768
      4 O         140.0329  140.7286  165.3490 O.2     1  UNL1       -0.4509
      5 C         139.4351  142.0562  164.9883 C.ar    1  UNL1        0.1451
      6 C         139.5886  143.4224  165.5883 C.ar    1  UNL1        0.0375
      7 C         138.8490  144.5872  165.0001 C.ar    1  UNL1        0.0031
      8 C         137.9560  144.3860  163.8118 C.ar    1  UNL1        0.0002
      9 C         137.8025  143.0198  163.2118 C.ar    1  UNL1        0.0028
     10 C         138.5421  141.8550  163.8000 C.ar    1  UNL1        0.0336
     11 C         139.8478  138.2455  164.3769 C.2     1  UNL1        0.2221
     12 O         141.0964  137.7680  163.6966 O.2     1  UNL1       -0.2870
     13 C         138.9376  137.2618  165.0505 C.3     1  UNL1        0.1773
     14 C         138.0988  137.6929  166.2169 C.1     1  UNL1        0.0816
     15 N         137.2600  138.1240  167.3833 N.1     1  UNL1       -0.1954
@<TRIPOS>BOND
     1     1     2    1
     2     2     3   ar
     3     3    11    1
     4    11    12    2
     5    11    13    1
     6    13    14    1
     7    14    15    3
     8     3     4   ar
     9     4     5   ar
    10     5     6   ar
    11     6     7   ar
    12     7     8   ar
    13     8     9   ar
    14     9    10   ar
    15    10     2   ar
    16    10     5   ar
