@<TRIPOS>MOLECULE
*****
 32 34 0 0 0
SMALL
GASTEIGER

@<TRIPOS>ATOM
      1 C         142.0493  140.4464  168.6473 C.3     1  UNL1        0.0926
      2 C         142.6077  140.0921  169.9937 C.3     1  UNL1        0.0887
      3 N         143.6376  141.1215  170.3539 N.3     1  UNL1       -0.2958
      4 C         143.7157  142.1120  169.2300 C.3     1  UNL1        0.0747
      5 C         142.7341  141.6947  168.1754 C.3     1  UNL1        0.0573
      6 H         144.5445  140.6731  170.4838 H       1  UNL1        0.1233
      7 C         142.4816  142.4016  166.8767 C.ar    1  UNL1       -0.0195
      8 C         141.0768  142.7149  166.4541 C.ar    1  UNL1       -0.0034
      9 C         140.8244  143.4218  165.1555 C.ar    1  UNL1        0.0146
     10 C         141.9766  143.8155  164.2794 C.ar    1  UNL1        0.1228
     11 C         143.3813  143.5023  164.7021 C.ar    1  UNL1        0.0146
     12 C         143.6338  142.7953  166.0007 C.ar    1  UNL1       -0.0034
     13 S         141.7242  144.5225  162.9808 S.3     1  UNL1        0.3126
     14 F         141.9729  143.0433  162.9934 F       1  UNL1       -0.0934
     15 F         141.7205  143.7503  161.6949 F       1  UNL1       -0.0934
     16 F         141.4754  146.0017  162.9681 F       1  UNL1       -0.0934
     17 F         141.4717  145.2295  161.6822 F       1  UNL1       -0.0934
     18 F         141.7279  145.2947  164.2667 F       1  UNL1       -0.0934
     19 C         139.5452  139.8796  168.2494 C.2     1  UNL1        0.2269
     20 O         139.1560  140.8341  169.3392 O.2     1  UNL1       -0.2747
     21 N         140.9918  139.6858  167.9035 N.am    1  UNL1       -0.3040
     22 H         141.2472  139.0593  167.1883 H       1  UNL1        0.1494
     23 C         138.4878  139.1190  167.5056 C.3     1  UNL1        0.1113
     24 C         138.5187  139.0386  163.0064 C.ar    1  UNL1        0.0479
     25 C         138.1792  140.3071  163.7315 C.ar    1  UNL1        0.0142
     26 C         138.1689  140.3339  165.2313 C.ar    1  UNL1       -0.0025
     27 C         138.4981  139.0922  166.0059 C.ar    1  UNL1       -0.0130
     28 C         138.8375  137.8238  165.2807 C.ar    1  UNL1       -0.0025
     29 C         138.8478  137.7970  163.7810 C.ar    1  UNL1        0.0142
     30 C         137.4903  139.7713  160.7359 C.3     1  UNL1        0.1122
     31 N         138.5290  139.0118  161.5067 N.pl3   1  UNL1       -0.3041
     32 C         139.5780  138.2254  160.7778 C.3     1  UNL1        0.1122
@<TRIPOS>BOND
     1    30    31    1
     2    31    32    1
     3    31    24    1
     4    24    25   ar
     5    25    26   ar
     6    26    27   ar
     7    27    23    1
     8    23    19    1
     9    19    20    2
    10    19    21   am
    11     1    21    1
    12     1     2    1
    13     2     3    1
    14     3     4    1
    15     4     5    1
    16     5     7    1
    17     7     8   ar
    18     8     9   ar
    19     9    10   ar
    20    10    13    1
    21    13    14    1
    22    13    15    1
    23    13    16    1
    24    13    17    1
    25    13    18    1
    26    10    11   ar
    27    11    12   ar
    28    27    28   ar
    29    28    29   ar
    30    29    24   ar
    31     5     1    1
    32    12     7   ar
    33    21    22    1
    34     3     6    1
@<TRIPOS>MOLECULE
*****
 32 34 0 0 0
SMALL
GASTEIGER

@<TRIPOS>ATOM
      1 C         142.0208  140.4382  168.6330 C.3     1  UNL1        0.0926
      2 C         142.5747  140.0808  169.9805 C.3     1  UNL1        0.0887
      3 N         143.6015  141.1108  170.3477 N.3     1  UNL1       -0.2958
      4 C         143.6822  142.1048  169.2271 C.3     1  UNL1        0.0747
      5 C         142.7053  141.6891  168.1675 C.3     1  UNL1        0.0573
      6 H         144.5086  140.6635  170.4796 H       1  UNL1        0.1233
      7 C         142.4567  142.3995  166.8700 C.ar    1  UNL1       -0.0195
      8 C         143.6105  142.7798  165.9901 C.ar    1  UNL1       -0.0034
      9 C         143.3618  143.4903  164.6926 C.ar    1  UNL1        0.0146
     10 C         141.9594  143.8205  164.2751 C.ar    1  UNL1        0.1228
     11 C         140.8057  143.4403  165.1550 C.ar    1  UNL1        0.0146
     12 C         141.0544  142.7298  166.4524 C.ar    1  UNL1       -0.0034
     13 S         141.7107  144.5310  162.9776 S.3     1  UNL1        0.3126
     14 F         141.7139  145.3003  164.2653 F       1  UNL1       -0.0934
     15 F         141.4652  146.0107  162.9679 F       1  UNL1       -0.0934
     16 F         141.7076  143.7617  161.6899 F       1  UNL1       -0.0934
     17 F         141.4620  145.2414  161.6802 F       1  UNL1       -0.0934
     18 F         141.9562  143.0513  162.9874 F       1  UNL1       -0.0934
     19 C         139.5205  139.8540  168.2369 C.2     1  UNL1        0.2269
     20 O         139.1269  140.7899  169.3410 O.2     1  UNL1       -0.2747
     21 N         140.9674  139.6781  167.8829 N.am    1  UNL1       -0.3040
     22 H         141.2257  139.0638  167.1582 H       1  UNL1        0.1494
     23 C         138.4671  139.0939  167.4867 C.3     1  UNL1        0.1113
     24 C         138.5255  139.0128  162.9878 C.ar    1  UNL1        0.0479
     25 C         138.8481  137.7708  163.7645 C.ar    1  UNL1        0.0142
     26 C         138.8286  137.7978  165.2642 C.ar    1  UNL1       -0.0025
     27 C         138.4866  139.0669  165.9871 C.ar    1  UNL1       -0.0130
     28 C         138.1640  140.3089  165.2103 C.ar    1  UNL1       -0.0025
     29 C         138.1834  140.2819  163.7107 C.ar    1  UNL1        0.0142
     30 C         139.6149  138.2223  160.7657 C.3     1  UNL1        0.1122
     31 N         138.5449  138.9858  161.4882 N.pl3   1  UNL1       -0.3041
     32 C         137.4944  139.7224  160.7111 C.3     1  UNL1        0.1122
@<TRIPOS>BOND
     1    30    31    1
     2    31    32    1
     3    31    24    1
     4    24    25   ar
     5    25    26   ar
     6    26    27   ar
     7    27    23    1
     8    23    19    1
     9    19    20    2
    10    19    21   am
    11     1    21    1
    12     1     2    1
    13     2     3    1
    14     3     4    1
    15     4     5    1
    16     5     7    1
    17     7     8   ar
    18     8     9   ar
    19     9    10   ar
    20    10    13    1
    21    13    14    1
    22    13    15    1
    23    13    16    1
    24    13    17    1
    25    13    18    1
    26    10    11   ar
    27    11    12   ar
    28    27    28   ar
    29    28    29   ar
    30    29    24   ar
    31     5     1    1
    32    12     7   ar
    33    21    22    1
    34     3     6    1
@<TRIPOS>MOLECULE
*****
 32 34 0 0 0
SMALL
GASTEIGER

@<TRIPOS>ATOM
      1 C         140.5263  140.3063  168.4233 C.3     1  UNL1        0.0926
      2 C         140.2239  139.8280  169.8125 C.3     1  UNL1        0.0887
      3 N         141.5151  139.4059  170.4488 N.3     1  UNL1       -0.2958
      4 C         142.6154  139.6235  169.4528 C.3     1  UNL1        0.0747
      5 C         142.0044  140.1799  168.2010 C.3     1  UNL1        0.0573
      6 H         141.4690  138.4194  170.7038 H       1  UNL1        0.1233
      7 C         142.7419  140.5458  166.9472 C.ar    1  UNL1       -0.0195
      8 C         142.9764  141.9883  166.6088 C.ar    1  UNL1       -0.0034
      9 C         143.7139  142.3541  165.3550 C.ar    1  UNL1        0.0146
     10 C         144.2169  141.2776  164.4394 C.ar    1  UNL1        0.1228
     11 C         143.9823  139.8352  164.7778 C.ar    1  UNL1        0.0146
     12 C         143.2448  139.4694  166.0316 C.ar    1  UNL1       -0.0034
     13 S         144.9544  141.6435  163.1855 S.3     1  UNL1        0.3126
     14 F         143.4622  141.4931  163.1611 F       1  UNL1       -0.0934
     15 F         144.1997  141.8590  161.9073 F       1  UNL1       -0.0934
     16 F         146.4467  141.7938  163.2100 F       1  UNL1       -0.0934
     17 F         145.6920  142.0093  161.9317 F       1  UNL1       -0.0934
     18 F         145.7091  141.4280  164.4638 F       1  UNL1       -0.0934
     19 C         139.1783  140.0017  166.2233 C.2     1  UNL1        0.2269
     20 O         139.8305  138.6681  166.0084 O.2     1  UNL1       -0.2747
     21 N         139.5262  140.8208  167.4307 N.am    1  UNL1       -0.3040
     22 H         139.0981  141.6961  167.5718 H       1  UNL1        0.1494
     23 C         138.1783  140.5161  165.2308 C.3     1  UNL1        0.1113
     24 C         139.3632  143.7128  162.2934 C.ar    1  UNL1        0.0479
     25 C         137.9156  143.4928  162.6191 C.ar    1  UNL1        0.0142
     26 C         137.5206  142.4273  163.5982 C.ar    1  UNL1       -0.0025
     27 C         138.5732  141.5817  164.2516 C.ar    1  UNL1       -0.0130
     28 C         140.0208  141.8016  163.9259 C.ar    1  UNL1       -0.0025
     29 C         140.4158  142.8671  162.9468 C.ar    1  UNL1        0.0142
     30 C         139.7595  146.2185  161.7333 C.3     1  UNL1        0.1122
     31 N         139.7582  144.7782  161.3143 N.pl3   1  UNL1       -0.3041
     32 C         140.1518  144.4035  159.9162 C.3     1  UNL1        0.1122
@<TRIPOS>BOND
     1    30    31    1
     2    31    32    1
     3    31    24    1
     4    24    25   ar
     5    25    26   ar
     6    26    27   ar
     7    27    23    1
     8    23    19    1
     9    19    20    2
    10    19    21   am
    11     1    21    1
    12     1     2    1
    13     2     3    1
    14     3     4    1
    15     4     5    1
    16     5     7    1
    17     7     8   ar
    18     8     9   ar
    19     9    10   ar
    20    10    13    1
    21    13    14    1
    22    13    15    1
    23    13    16    1
    24    13    17    1
    25    13    18    1
    26    10    11   ar
    27    11    12   ar
    28    27    28   ar
    29    28    29   ar
    30    29    24   ar
    31     5     1    1
    32    12     7   ar
    33    21    22    1
    34     3     6    1
@<TRIPOS>MOLECULE
*****
 32 34 0 0 0
SMALL
GASTEIGER

@<TRIPOS>ATOM
      1 C         143.3253  139.7470  161.9172 C.3     1  UNL1        0.0926
      2 C         144.1497  139.5497  160.6797 C.3     1  UNL1        0.0887
      3 N         143.5893  138.3766  159.9315 N.3     1  UNL1       -0.2958
      4 C         142.4186  137.8488  160.7068 C.3     1  UNL1        0.0747
      5 C         142.2554  138.6958  161.9339 C.3     1  UNL1        0.0573
      6 H         144.3007  137.6511  159.8423 H       1  UNL1        0.1233
      7 C         141.2065  138.5221  162.9921 C.ar    1  UNL1       -0.0195
      8 C         141.5404  138.7891  164.4299 C.ar    1  UNL1       -0.0034
      9 C         140.4915  138.6153  165.4881 C.ar    1  UNL1        0.0146
     10 C         139.1088  138.1747  165.1084 C.ar    1  UNL1        0.1228
     11 C         138.7751  137.9077  163.6706 C.ar    1  UNL1        0.0146
     12 C         139.8239  138.0815  162.6125 C.ar    1  UNL1       -0.0034
     13 S         138.0599  138.0009  166.1666 S.3     1  UNL1        0.3126
     14 F         138.7111  136.7978  165.5513 F       1  UNL1       -0.0934
     15 F         137.6622  136.6242  166.6094 F       1  UNL1       -0.0934
     16 F         137.4087  139.2041  166.7818 F       1  UNL1       -0.0934
     17 F         137.0110  137.8273  167.2247 F       1  UNL1       -0.0934
     18 F         138.4576  139.3778  165.7236 F       1  UNL1       -0.0934
     19 C         142.5627  141.9461  163.0716 C.2     1  UNL1        0.2269
     20 O         141.3822  142.0210  162.1492 O.2     1  UNL1       -0.2747
     21 N         143.5342  140.8092  162.9557 N.am    1  UNL1       -0.3040
     22 H         144.3090  140.7600  163.5611 H       1  UNL1        0.1494
     23 C         142.7716  143.0081  164.1101 C.3     1  UNL1        0.1113
     24 C         141.5876  142.2407  168.3832 C.ar    1  UNL1        0.0479
     25 C         143.0306  142.1685  167.9803 C.ar    1  UNL1        0.0142
     26 C         143.4253  142.4243  166.5559 C.ar    1  UNL1       -0.0025
     27 C         142.3769  142.7523  165.5345 C.ar    1  UNL1       -0.0130
     28 C         140.9339  142.8245  165.9374 C.ar    1  UNL1       -0.0025
     29 C         140.5392  142.5687  167.3617 C.ar    1  UNL1        0.0142
     30 C         140.0813  142.7756  170.4313 C.3     1  UNL1        0.1122
     31 N         141.1929  141.9849  169.8075 N.pl3   1  UNL1       -0.3041
     32 C         141.9098  140.9384  170.6081 C.3     1  UNL1        0.1122
@<TRIPOS>BOND
     1    30    31    1
     2    31    32    1
     3    31    24    1
     4    24    25   ar
     5    25    26   ar
     6    26    27   ar
     7    27    23    1
     8    23    19    1
     9    19    20    2
    10    19    21   am
    11     1    21    1
    12     1     2    1
    13     2     3    1
    14     3     4    1
    15     4     5    1
    16     5     7    1
    17     7     8   ar
    18     8     9   ar
    19     9    10   ar
    20    10    13    1
    21    13    14    1
    22    13    15    1
    23    13    16    1
    24    13    17    1
    25    13    18    1
    26    10    11   ar
    27    11    12   ar
    28    27    28   ar
    29    28    29   ar
    30    29    24   ar
    31     5     1    1
    32    12     7   ar
    33    21    22    1
    34     3     6    1
@<TRIPOS>MOLECULE
*****
 32 34 0 0 0
SMALL
GASTEIGER

@<TRIPOS>ATOM
      1 C         141.0706  140.6242  169.8446 C.3     1  UNL1        0.0926
      2 C         140.9667  141.0634  171.2751 C.3     1  UNL1        0.0887
      3 N         142.1112  141.9903  171.5597 N.3     1  UNL1       -0.2958
      4 C         142.9224  142.1239  170.3050 C.3     1  UNL1        0.0747
      5 C         142.2793  141.2796  169.2451 C.3     1  UNL1        0.0573
      6 H         142.6899  141.6065  172.3069 H       1  UNL1        0.1233
      7 C         142.7604  141.1190  167.8335 C.ar    1  UNL1       -0.0195
      8 C         143.1271  142.3275  167.0240 C.ar    1  UNL1       -0.0034
      9 C         143.6082  142.1669  165.6124 C.ar    1  UNL1        0.0146
     10 C         143.7226  140.7978  165.0101 C.ar    1  UNL1        0.1228
     11 C         143.3559  139.5894  165.8196 C.ar    1  UNL1        0.0146
     12 C         142.8748  139.7501  167.2312 C.ar    1  UNL1       -0.0034
     13 S         144.2037  140.6372  163.5985 S.3     1  UNL1        0.3126
     14 F         145.1911  140.6826  164.7268 F       1  UNL1       -0.0934
     15 F         145.6721  140.5220  163.3151 F       1  UNL1       -0.0934
     16 F         143.2162  140.5918  162.4702 F       1  UNL1       -0.0934
     17 F         144.6847  140.4766  162.1869 F       1  UNL1       -0.0934
     18 F         142.7352  140.7524  163.8819 F       1  UNL1       -0.0934
     19 C         139.4162  140.1462  167.8992 C.2     1  UNL1        0.2269
     20 O         139.6415  141.5305  167.3674 O.2     1  UNL1       -0.2747
     21 N         140.1307  139.6930  169.1378 N.am    1  UNL1       -0.3040
     22 H         139.9828  138.7844  169.4868 H       1  UNL1        0.1494
     23 C         138.4764  139.2150  167.1924 C.3     1  UNL1        0.1113
     24 C         138.4328  139.0477  162.6957 C.ar    1  UNL1        0.0479
     25 C         138.8658  137.8490  163.4866 C.ar    1  UNL1        0.0142
     26 C         138.8804  137.9048  164.9856 C.ar    1  UNL1       -0.0025
     27 C         138.4618  139.1592  165.6935 C.ar    1  UNL1       -0.0130
     28 C         138.0288  140.3579  164.9025 C.ar    1  UNL1       -0.0025
     29 C         138.0142  140.3021  163.4037 C.ar    1  UNL1        0.0142
     30 C         139.4252  138.1526  160.4677 C.3     1  UNL1        0.1122
     31 N         138.4182  138.9919  161.1968 N.pl3   1  UNL1       -0.3041
     32 C         137.3967  139.7755  160.4270 C.3     1  UNL1        0.1122
@<TRIPOS>BOND
     1    30    31    1
     2    31    32    1
     3    31    24    1
     4    24    25   ar
     5    25    26   ar
     6    26    27   ar
     7    27    23    1
     8    23    19    1
     9    19    20    2
    10    19    21   am
    11     1    21    1
    12     1     2    1
    13     2     3    1
    14     3     4    1
    15     4     5    1
    16     5     7    1
    17     7     8   ar
    18     8     9   ar
    19     9    10   ar
    20    10    13    1
    21    13    14    1
    22    13    15    1
    23    13    16    1
    24    13    17    1
    25    13    18    1
    26    10    11   ar
    27    11    12   ar
    28    27    28   ar
    29    28    29   ar
    30    29    24   ar
    31     5     1    1
    32    12     7   ar
    33    21    22    1
    34     3     6    1
@<TRIPOS>MOLECULE
*****
 32 34 0 0 0
SMALL
GASTEIGER

@<TRIPOS>ATOM
      1 C         139.7615  140.4706  168.0367 C.3     1  UNL1        0.0926
      2 C         139.1047  140.3096  169.3757 C.3     1  UNL1        0.0887
      3 N         139.4762  141.4928  170.2194 N.3     1  UNL1       -0.2958
      4 C         140.3626  142.3851  169.4019 C.3     1  UNL1        0.0747
      5 C         140.5389  141.7533  168.0530 C.3     1  UNL1        0.0573
      6 H         139.9737  141.1807  171.0534 H       1  UNL1        0.1233
      7 C         141.3501  142.3070  166.9193 C.ar    1  UNL1       -0.0195
      8 C         142.8449  142.1827  166.9359 C.ar    1  UNL1       -0.0034
      9 C         143.6562  142.7364  165.8023 C.ar    1  UNL1        0.0146
     10 C         142.9728  143.4146  164.6520 C.ar    1  UNL1        0.1228
     11 C         141.4780  143.5389  164.6354 C.ar    1  UNL1        0.0146
     12 C         140.6668  142.9852  165.7691 C.ar    1  UNL1       -0.0034
     13 S         143.7840  143.9683  163.5183 S.3     1  UNL1        0.3126
     14 F         143.5265  142.4932  163.6058 F       1  UNL1       -0.0934
     15 F         144.3378  143.0471  162.4722 F       1  UNL1       -0.0934
     16 F         144.0415  145.4436  163.4309 F       1  UNL1       -0.0934
     17 F         144.5952  144.5222  162.3847 F       1  UNL1       -0.0934
     18 F         143.2302  144.8897  164.5645 F       1  UNL1       -0.0934
     19 C         138.4982  138.5704  166.7943 C.2     1  UNL1        0.2269
     20 O         137.4401  138.5787  167.8575 O.2     1  UNL1       -0.2747
     21 N         139.6589  139.5163  166.8839 N.am    1  UNL1       -0.3040
     22 H         140.3533  139.5109  166.1860 H       1  UNL1        0.1494
     23 C         138.3956  137.6162  165.6415 C.3     1  UNL1        0.1113
     24 C         141.2269  137.9778  162.1625 C.ar    1  UNL1        0.0479
     25 C         141.7359  137.5286  163.5001 C.ar    1  UNL1        0.0142
     26 C         140.7921  137.4081  164.6598 C.ar    1  UNL1       -0.0025
     27 C         139.3394  137.7367  164.4818 C.ar    1  UNL1       -0.0130
     28 C         138.8305  138.1860  163.1442 C.ar    1  UNL1       -0.0025
     29 C         139.7742  138.3065  161.9846 C.ar    1  UNL1        0.0142
     30 C         141.6551  138.5113  159.6562 C.3     1  UNL1        0.1122
     31 N         142.1707  138.0983  161.0029 N.pl3   1  UNL1       -0.3041
     32 C         143.6300  137.8059  161.1899 C.3     1  UNL1        0.1122
@<TRIPOS>BOND
     1    30    31    1
     2    31    32    1
     3    31    24    1
     4    24    25   ar
     5    25    26   ar
     6    26    27   ar
     7    27    23    1
     8    23    19    1
     9    19    20    2
    10    19    21   am
    11     1    21    1
    12     1     2    1
    13     2     3    1
    14     3     4    1
    15     4     5    1
    16     5     7    1
    17     7     8   ar
    18     8     9   ar
    19     9    10   ar
    20    10    13    1
    21    13    14    1
    22    13    15    1
    23    13    16    1
    24    13    17    1
    25    13    18    1
    26    10    11   ar
    27    11    12   ar
    28    27    28   ar
    29    28    29   ar
    30    29    24   ar
    31     5     1    1
    32    12     7   ar
    33    21    22    1
    34     3     6    1
@<TRIPOS>MOLECULE
*****
 32 34 0 0 0
SMALL
GASTEIGER

@<TRIPOS>ATOM
      1 C         143.6173  142.8261  159.9831 C.3     1  UNL1        0.0926
      2 C         144.2387  142.8443  158.6180 C.3     1  UNL1        0.0887
      3 N         143.3569  143.6581  157.7180 N.3     1  UNL1       -0.2958
      4 C         142.1904  144.1429  158.5269 C.3     1  UNL1        0.0747
      5 C         142.3514  143.6287  159.9268 C.3     1  UNL1        0.0573
      6 H         143.0259  143.0817  156.9442 H       1  UNL1        0.1233
      7 C         141.4114  143.8741  161.0697 C.ar    1  UNL1       -0.0195
      8 C         141.1074  142.7718  162.0406 C.ar    1  UNL1       -0.0034
      9 C         140.1674  143.0172  163.1835 C.ar    1  UNL1        0.0146
     10 C         139.5314  144.3648  163.3556 C.ar    1  UNL1        0.1228
     11 C         139.8355  145.4670  162.3847 C.ar    1  UNL1        0.0146
     12 C         140.7755  145.2216  161.2418 C.ar    1  UNL1       -0.0034
     13 S         138.5915  144.6102  164.4985 S.3     1  UNL1        0.3126
     14 F         138.0846  143.9894  163.2306 F       1  UNL1       -0.0934
     15 F         137.1447  144.2348  164.3735 F       1  UNL1       -0.0934
     16 F         139.0985  145.2310  165.7664 F       1  UNL1       -0.0934
     17 F         137.6516  144.8556  165.6414 F       1  UNL1       -0.0934
     18 F         140.0384  144.9856  164.6235 F       1  UNL1       -0.0934
     19 C         144.6587  142.9281  162.3612 C.2     1  UNL1        0.2269
     20 O         144.6036  144.4266  162.3210 O.2     1  UNL1       -0.2747
     21 N         144.1656  142.1279  161.1923 N.am    1  UNL1       -0.3040
     22 H         144.2018  141.1444  161.2186 H       1  UNL1        0.1494
     23 C         145.2070  142.2299  163.5702 C.3     1  UNL1        0.1113
     24 C         142.4074  140.6566  166.7226 C.ar    1  UNL1        0.0479
     25 C         143.0950  139.7058  165.7881 C.ar    1  UNL1        0.0142
     26 C         144.0282  140.2303  164.7373 C.ar    1  UNL1       -0.0025
     27 C         144.2738  141.7054  164.6210 C.ar    1  UNL1       -0.0130
     28 C         143.5862  142.6562  165.5555 C.ar    1  UNL1       -0.0025
     29 C         142.6530  142.1318  166.6063 C.ar    1  UNL1        0.0142
     30 C         142.0093  139.7158  169.1114 C.3     1  UNL1        0.1122
     31 N         141.4742  140.1322  167.7734 N.pl3   1  UNL1       -0.3041
     32 C         140.0059  140.0241  167.4861 C.3     1  UNL1        0.1122
@<TRIPOS>BOND
     1    30    31    1
     2    31    32    1
     3    31    24    1
     4    24    25   ar
     5    25    26   ar
     6    26    27   ar
     7    27    23    1
     8    23    19    1
     9    19    20    2
    10    19    21   am
    11     1    21    1
    12     1     2    1
    13     2     3    1
    14     3     4    1
    15     4     5    1
    16     5     7    1
    17     7     8   ar
    18     8     9   ar
    19     9    10   ar
    20    10    13    1
    21    13    14    1
    22    13    15    1
    23    13    16    1
    24    13    17    1
    25    13    18    1
    26    10    11   ar
    27    11    12   ar
    28    27    28   ar
    29    28    29   ar
    30    29    24   ar
    31     5     1    1
    32    12     7   ar
    33    21    22    1
    34     3     6    1
@<TRIPOS>MOLECULE
*****
 32 34 0 0 0
SMALL
GASTEIGER

@<TRIPOS>ATOM
      1 C         139.8053  139.2646  160.4157 C.3     1  UNL1        0.0926
      2 C         139.5763  138.6793  159.0537 C.3     1  UNL1        0.0887
      3 N         138.6172  139.5703  158.3215 N.3     1  UNL1       -0.2958
      4 C         138.2535  140.7064  159.2310 C.3     1  UNL1        0.0747
      5 C         138.9878  140.5174  160.5253 C.3     1  UNL1        0.0573
      6 H         137.7792  139.0454  158.0712 H       1  UNL1        0.1233
      7 C         138.9170  141.4223  161.7194 C.ar    1  UNL1       -0.0195
      8 C         139.6758  142.7163  161.7258 C.ar    1  UNL1       -0.0034
      9 C         139.6050  143.6213  162.9200 C.ar    1  UNL1        0.0146
     10 C         138.7754  143.2324  164.1077 C.ar    1  UNL1        0.1228
     11 C         138.0166  141.9385  164.1012 C.ar    1  UNL1        0.0146
     12 C         138.0875  141.0335  162.9071 C.ar    1  UNL1       -0.0034
     13 S         138.7046  144.1374  165.3018 S.3     1  UNL1        0.3126
     14 F         139.8427  143.1708  165.1598 F       1  UNL1       -0.0934
     15 F         139.7718  144.0758  166.3539 F       1  UNL1       -0.0934
     16 F         137.5663  145.1040  165.4438 F       1  UNL1       -0.0934
     17 F         138.6336  145.0424  166.4959 F       1  UNL1       -0.0934
     18 F         137.6372  144.1990  164.2497 F       1  UNL1       -0.0934
     19 C         140.1073  137.8814  162.5942 C.2     1  UNL1        0.2269
     20 O         138.6286  137.6339  162.6420 O.2     1  UNL1       -0.2747
     21 N         140.6957  138.6967  161.4810 N.am    1  UNL1       -0.3040
     22 H         141.6662  138.8591  161.4496 H       1  UNL1        0.1494
     23 C         140.9976  137.3136  163.6594 C.3     1  UNL1        0.1113
     24 C         142.1491  139.8311  167.2072 C.ar    1  UNL1        0.0479
     25 C         143.1543  138.9082  166.5846 C.ar    1  UNL1        0.0142
     26 C         142.7705  138.0690  165.4020 C.ar    1  UNL1       -0.0025
     27 C         141.3815  138.1528  164.8421 C.ar    1  UNL1       -0.0130
     28 C         140.3762  139.0757  165.4647 C.ar    1  UNL1       -0.0025
     29 C         140.7600  139.9149  166.6472 C.ar    1  UNL1        0.0142
     30 C         142.5445  140.0691  169.7639 C.3     1  UNL1        0.1122
     31 N         142.5329  140.6703  168.3898 N.pl3   1  UNL1       -0.3041
     32 C         142.9050  142.1107  168.1982 C.3     1  UNL1        0.1122
@<TRIPOS>BOND
     1    30    31    1
     2    31    32    1
     3    31    24    1
     4    24    25   ar
     5    25    26   ar
     6    26    27   ar
     7    27    23    1
     8    23    19    1
     9    19    20    2
    10    19    21   am
    11     1    21    1
    12     1     2    1
    13     2     3    1
    14     3     4    1
    15     4     5    1
    16     5     7    1
    17     7     8   ar
    18     8     9   ar
    19     9    10   ar
    20    10    13    1
    21    13    14    1
    22    13    15    1
    23    13    16    1
    24    13    17    1
    25    13    18    1
    26    10    11   ar
    27    11    12   ar
    28    27    28   ar
    29    28    29   ar
    30    29    24   ar
    31     5     1    1
    32    12     7   ar
    33    21    22    1
    34     3     6    1
@<TRIPOS>MOLECULE
*****
 32 34 0 0 0
SMALL
GASTEIGER

@<TRIPOS>ATOM
      1 C         138.1354  140.1236  161.9145 C.3     1  UNL1        0.0926
      2 C         137.3365  139.4476  160.8398 C.3     1  UNL1        0.0887
      3 N         137.9221  139.8345  159.5141 N.3     1  UNL1       -0.2958
      4 C         139.0829  140.7497  159.7695 C.3     1  UNL1        0.0747
      5 C         139.2147  140.9283  161.2530 C.3     1  UNL1        0.0573
      6 H         137.2194  140.3152  158.9524 H       1  UNL1        0.1233
      7 C         140.2449  141.7648  161.9521 C.ar    1  UNL1       -0.0195
      8 C         139.8202  142.9445  162.7756 C.ar    1  UNL1       -0.0034
      9 C         140.8504  143.7809  163.4748 C.ar    1  UNL1        0.0146
     10 C         142.3054  143.4378  163.3506 C.ar    1  UNL1        0.1228
     11 C         142.7301  142.2582  162.5271 C.ar    1  UNL1        0.0146
     12 C         141.6998  141.4217  161.8280 C.ar    1  UNL1       -0.0034
     13 S         143.3357  144.2743  164.0497 S.3     1  UNL1        0.3126
     14 F         142.8356  143.0122  164.6877 F       1  UNL1       -0.0934
     15 F         143.8658  143.8487  165.3867 F       1  UNL1       -0.0934
     16 F         143.8357  145.5365  163.4118 F       1  UNL1       -0.0934
     17 F         144.3659  145.1108  164.7488 F       1  UNL1       -0.0934
     18 F         142.8055  144.6999  162.7127 F       1  UNL1       -0.0934
     19 C         138.8301  139.2066  164.2440 C.2     1  UNL1        0.2269
     20 O         140.0020  138.5087  163.6198 O.2     1  UNL1       -0.2747
     21 N         137.8968  140.0141  163.3914 N.am    1  UNL1       -0.3040
     22 H         137.1277  140.4721  163.8010 H       1  UNL1        0.1494
     23 C         138.5915  139.0971  165.7208 C.3     1  UNL1        0.1113
     24 C         140.5539  142.0054  168.5389 C.ar    1  UNL1        0.0479
     25 C         140.6466  142.2183  167.0569 C.ar    1  UNL1        0.0142
     26 C         139.9925  141.2489  166.1176 C.ar    1  UNL1       -0.0025
     27 C         139.2457  140.0666  166.6602 C.ar    1  UNL1       -0.0130
     28 C         139.1530  139.8537  168.1421 C.ar    1  UNL1       -0.0025
     29 C         139.8071  140.8231  169.0814 C.ar    1  UNL1        0.0142
     30 C         142.6410  142.7816  169.8772 C.3     1  UNL1        0.1122
     31 N         141.2080  142.9748  169.4782 N.pl3   1  UNL1       -0.3041
     32 C         140.4292  144.1373  170.0185 C.3     1  UNL1        0.1122
@<TRIPOS>BOND
     1    30    31    1
     2    31    32    1
     3    31    24    1
     4    24    25   ar
     5    25    26   ar
     6    26    27   ar
     7    27    23    1
     8    23    19    1
     9    19    20    2
    10    19    21   am
    11     1    21    1
    12     1     2    1
    13     2     3    1
    14     3     4    1
    15     4     5    1
    16     5     7    1
    17     7     8   ar
    18     8     9   ar
    19     9    10   ar
    20    10    13    1
    21    13    14    1
    22    13    15    1
    23    13    16    1
    24    13    17    1
    25    13    18    1
    26    10    11   ar
    27    11    12   ar
    28    27    28   ar
    29    28    29   ar
    30    29    24   ar
    31     5     1    1
    32    12     7   ar
    33    21    22    1
    34     3     6    1
