@<TRIPOS>MOLECULE
*****
 31 35 0 0 0
SMALL
GASTEIGER

@<TRIPOS>ATOM
      1 O         137.3083  141.0431  162.7187 O.2     1  UNL1       -0.2699
      2 C         138.6571  140.5650  163.1683 C.2     1  UNL1        0.2494
      3 N         139.5999  139.9434  162.1809 N.am    1  UNL1       -0.2670
      4 C         139.1939  139.7999  160.7441 C.3     1  UNL1        0.1186
      5 C         140.1367  139.1783  159.7568 C.3     1  UNL1        0.1302
      6 N         141.4855  138.7002  160.2064 N.ar    1  UNL1       -0.2944
      7 C         141.8916  138.8438  161.6432 C.ar    1  UNL1        0.1636
      8 N         143.2754  138.2843  161.7919 N.ar    1  UNL1       -0.1315
      9 N         143.7246  137.7950  160.4470 N.ar    1  UNL1       -0.1274
     10 C         142.6184  138.0520  159.4671 C.ar    1  UNL1        0.1845
     11 C         140.9488  139.4654  162.6305 C.3     1  UNL1        0.1599
     12 C         139.0632  140.7086  164.6051 C.ar    1  UNL1        0.0536
     13 C         138.7673  139.6090  165.5815 C.ar    1  UNL1        0.0045
     14 C         139.1734  139.7526  167.0184 C.ar    1  UNL1        0.0006
     15 C         139.8753  140.9957  167.4788 C.ar    1  UNL1        0.0060
     16 C         140.1711  142.0953  166.5023 C.ar    1  UNL1        0.0006
     17 C         139.7651  141.9517  165.0655 C.ar    1  UNL1        0.0045
     18 C         140.2813  141.1392  168.9156 C.ar    1  UNL1        0.0295
     19 C         140.1956  142.3927  169.7350 C.ar    1  UNL1        0.0070
     20 C         140.7057  142.0827  171.1111 C.ar    1  UNL1        0.0075
     21 C         141.1067  140.6376  171.1422 C.ar    1  UNL1        0.0354
     22 S         140.8444  140.0545  169.7853 S.2     1  UNL1       -0.0864
     23 C         142.6411  137.7193  158.0046 C.ar    1  UNL1        0.1241
     24 C         142.5229  138.6997  156.8755 C.ar    1  UNL1        0.0590
     25 S         142.5947  137.9342  155.5876 S.2     1  UNL1       -0.0620
     26 C         142.7572  136.4807  155.9207 C.ar    1  UNL1        0.1825
     27 N         142.7858  136.3479  157.4145 N.ar    1  UNL1       -0.2314
     28 C         142.8710  135.3572  154.9333 C.3     1  UNL1        0.4407
     29 F         142.9848  134.2338  153.9460 F       1  UNL1       -0.1640
     30 F         144.1256  134.8899  155.6098 F       1  UNL1       -0.1640
     31 F         141.6164  135.8246  154.2569 F       1  UNL1       -0.1640
@<TRIPOS>BOND
     1     1     2    2
     2     2    12    1
     3    12    13   ar
     4    13    14   ar
     5    14    15   ar
     6    15    18    1
     7    18    19   ar
     8    19    20   ar
     9    20    21   ar
    10    21    22   ar
    11    15    16   ar
    12    16    17   ar
    13     2     3   am
    14     3     4    1
    15     4     5    1
    16     5     6    1
    17     6     7   ar
    18     7     8   ar
    19     8     9   ar
    20     9    10   ar
    21    10    23    1
    22    23    24   ar
    23    24    25   ar
    24    25    26   ar
    25    26    28    1
    26    28    29    1
    27    28    30    1
    28    28    31    1
    29    26    27   ar
    30     7    11    1
    31    17    12   ar
    32    11     3    1
    33    22    18   ar
    34    10     6   ar
    35    27    23   ar
@<TRIPOS>MOLECULE
*****
 31 35 0 0 0
SMALL
GASTEIGER

@<TRIPOS>ATOM
      1 O         145.5228  141.3063  162.6005 O.2     1  UNL1       -0.2699
      2 C         144.2351  141.9397  163.0374 C.2     1  UNL1        0.2494
      3 N         143.3941  142.6892  162.0470 N.am    1  UNL1       -0.2670
      4 C         143.8406  142.8053  160.6197 C.3     1  UNL1        0.1186
      5 C         142.9995  143.5548  159.6294 C.3     1  UNL1        0.1302
      6 N         141.7119  144.1881  160.0663 N.ar    1  UNL1       -0.2944
      7 C         141.2654  144.0720  161.4935 C.ar    1  UNL1        0.1636
      8 N         139.9585  144.7955  161.6306 N.ar    1  UNL1       -0.1315
      9 N         139.5974  145.3587  160.2881 N.ar    1  UNL1       -0.1274
     10 C         140.6811  144.9834  159.3212 C.ar    1  UNL1        0.1845
     11 C         142.1064  143.3226  162.4839 C.3     1  UNL1        0.1599
     12 C         143.7886  141.8236  164.4647 C.ar    1  UNL1        0.0536
     13 C         144.0749  142.9331  165.4327 C.ar    1  UNL1        0.0045
     14 C         143.6283  142.8169  166.8600 C.ar    1  UNL1        0.0006
     15 C         142.8954  141.5913  167.3192 C.ar    1  UNL1        0.0060
     16 C         142.6091  140.4819  166.3512 C.ar    1  UNL1        0.0006
     17 C         143.0557  140.5980  164.9239 C.ar    1  UNL1        0.0045
     18 C         142.4489  141.4753  168.7465 C.ar    1  UNL1        0.0295
     19 C         141.9067  142.5878  169.5939 C.ar    1  UNL1        0.0070
     20 C         141.5888  142.0264  170.9480 C.ar    1  UNL1        0.0075
     21 C         141.9346  140.5668  170.9375 C.ar    1  UNL1        0.0354
     22 S         142.4661  140.2262  169.5769 S.2     1  UNL1       -0.0864
     23 C         140.7260  145.3405  157.8651 C.ar    1  UNL1        0.1241
     24 C         141.4520  144.5825  156.7934 C.ar    1  UNL1        0.0590
     25 S         141.2275  145.2918  155.4909 S.2     1  UNL1       -0.0620
     26 C         140.3629  146.4881  155.7576 C.ar    1  UNL1        0.1825
     27 N         140.0529  146.5182  157.2249 N.ar    1  UNL1       -0.2314
     28 C         139.8910  147.4802  154.7362 C.3     1  UNL1        0.4407
     29 F         139.4192  148.4723  153.7149 F       1  UNL1       -0.1640
     30 F         140.8128  146.8729  153.7205 F       1  UNL1       -0.1640
     31 F         138.9693  148.0875  155.7519 F       1  UNL1       -0.1640
@<TRIPOS>BOND
     1     1     2    2
     2     2    12    1
     3    12    13   ar
     4    13    14   ar
     5    14    15   ar
     6    15    18    1
     7    18    19   ar
     8    19    20   ar
     9    20    21   ar
    10    21    22   ar
    11    15    16   ar
    12    16    17   ar
    13     2     3   am
    14     3     4    1
    15     4     5    1
    16     5     6    1
    17     6     7   ar
    18     7     8   ar
    19     8     9   ar
    20     9    10   ar
    21    10    23    1
    22    23    24   ar
    23    24    25   ar
    24    25    26   ar
    25    26    28    1
    26    28    29    1
    27    28    30    1
    28    28    31    1
    29    26    27   ar
    30     7    11    1
    31    17    12   ar
    32    11     3    1
    33    22    18   ar
    34    10     6   ar
    35    27    23   ar
@<TRIPOS>MOLECULE
*****
 31 35 0 0 0
SMALL
GASTEIGER

@<TRIPOS>ATOM
      1 O         137.7034  139.2000  161.9321 O.2     1  UNL1       -0.2699
      2 C         138.7047  140.2209  162.3849 C.2     1  UNL1        0.2494
      3 N         139.1212  141.3251  161.4590 N.am    1  UNL1       -0.2670
      4 C         138.5363  141.4084  160.0802 C.3     1  UNL1        0.1186
      5 C         138.9528  142.5125  159.1544 C.3     1  UNL1        0.1302
      6 N         139.9542  143.5334  159.6072 N.ar    1  UNL1       -0.2944
      7 C         140.5390  143.4502  160.9860 C.ar    1  UNL1        0.1636
      8 N         141.4982  144.5913  161.1522 N.ar    1  UNL1       -0.1315
      9 N         141.5063  145.3798  159.8762 N.ar    1  UNL1       -0.1274
     10 C         140.5520  144.7261  158.9213 C.ar    1  UNL1        0.1845
     11 C         140.1225  142.3460  161.9118 C.3     1  UNL1        0.1599
     12 C         139.2895  140.1376  163.7637 C.ar    1  UNL1        0.0536
     13 C         140.4837  139.2669  164.0205 C.ar    1  UNL1        0.0045
     14 C         141.0685  139.1837  165.3994 C.ar    1  UNL1        0.0006
     15 C         140.4592  139.9711  166.5213 C.ar    1  UNL1        0.0060
     16 C         139.2651  140.8418  166.2644 C.ar    1  UNL1        0.0006
     17 C         138.6803  140.9251  164.8857 C.ar    1  UNL1        0.0045
     18 C         141.0441  139.8878  167.9000 C.ar    1  UNL1        0.0295
     19 C         142.4452  139.4741  168.2398 C.ar    1  UNL1        0.0070
     20 C         142.5976  139.5342  169.7308 C.ar    1  UNL1        0.0075
     21 C         141.2905  139.9851  170.3126 C.ar    1  UNL1        0.0354
     22 S         140.3304  140.2037  169.1810 S.2     1  UNL1       -0.0864
     23 C         140.2487  145.1844  157.5257 C.ar    1  UNL1        0.1241
     24 C         140.0801  144.3014  156.3248 C.ar    1  UNL1        0.0590
     25 S         139.7880  145.1774  155.1428 S.2     1  UNL1       -0.0620
     26 C         139.7760  146.6017  155.6130 C.ar    1  UNL1        0.1825
     27 N         140.0607  146.6060  157.0858 N.ar    1  UNL1       -0.2314
     28 C         139.5236  147.8097  154.7603 C.3     1  UNL1        0.4407
     29 F         139.2711  149.0176  153.9076 F       1  UNL1       -0.1640
     30 F         138.6189  148.3678  155.8187 F       1  UNL1       -0.1640
     31 F         140.4282  147.2516  153.7019 F       1  UNL1       -0.1640
@<TRIPOS>BOND
     1     1     2    2
     2     2    12    1
     3    12    13   ar
     4    13    14   ar
     5    14    15   ar
     6    15    18    1
     7    18    19   ar
     8    19    20   ar
     9    20    21   ar
    10    21    22   ar
    11    15    16   ar
    12    16    17   ar
    13     2     3   am
    14     3     4    1
    15     4     5    1
    16     5     6    1
    17     6     7   ar
    18     7     8   ar
    19     8     9   ar
    20     9    10   ar
    21    10    23    1
    22    23    24   ar
    23    24    25   ar
    24    25    26   ar
    25    26    28    1
    26    28    29    1
    27    28    30    1
    28    28    31    1
    29    26    27   ar
    30     7    11    1
    31    17    12   ar
    32    11     3    1
    33    22    18   ar
    34    10     6   ar
    35    27    23   ar
@<TRIPOS>MOLECULE
*****
 31 35 0 0 0
SMALL
GASTEIGER

@<TRIPOS>ATOM
      1 O         141.5133  141.2893  157.3596 O.2     1  UNL1       -0.2699
      2 C         140.8365  142.4557  158.0165 C.2     1  UNL1        0.2494
      3 N         140.3834  142.3539  159.4429 N.am    1  UNL1       -0.2670
      4 C         140.6071  141.0859  160.2122 C.3     1  UNL1        0.1186
      5 C         140.1540  140.9842  161.6385 C.3     1  UNL1        0.1302
      6 N         139.4773  142.1506  162.2954 N.ar    1  UNL1       -0.2944
      7 C         139.2536  143.4187  161.5260 C.ar    1  UNL1        0.1636
      8 N         138.5640  144.3951  162.4322 N.ar    1  UNL1       -0.1315
      9 N         138.3616  143.7305  163.7616 N.ar    1  UNL1       -0.1274
     10 C         138.9260  142.3433  163.6771 C.ar    1  UNL1        0.1845
     11 C         139.7066  143.5203  160.0998 C.3     1  UNL1        0.1599
     12 C         140.6128  143.7237  157.2471 C.ar    1  UNL1        0.0536
     13 C         139.3402  143.9195  156.4777 C.ar    1  UNL1        0.0045
     14 C         139.1165  145.1877  155.7083 C.ar    1  UNL1        0.0006
     15 C         140.1654  146.2599  155.7083 C.ar    1  UNL1        0.0060
     16 C         141.4381  146.0641  156.4778 C.ar    1  UNL1        0.0006
     17 C         141.6618  144.7960  157.2472 C.ar    1  UNL1        0.0045
     18 C         139.9417  147.5279  154.9390 C.ar    1  UNL1        0.0295
     19 C         139.1376  148.7078  155.3985 C.ar    1  UNL1        0.0070
     20 C         139.1818  149.7478  154.3186 C.ar    1  UNL1        0.0075
     21 C         140.0132  149.2107  153.1915 C.ar    1  UNL1        0.0354
     22 S         140.4829  147.8387  153.5749 S.2     1  UNL1       -0.0864
     23 C         138.9372  141.3273  164.7805 C.ar    1  UNL1        0.1241
     24 C         139.7240  141.4177  166.0543 C.ar    1  UNL1        0.0590
     25 S         139.4366  140.1888  166.8649 S.2     1  UNL1       -0.0620
     26 C         138.4722  139.3388  166.0921 C.ar    1  UNL1        0.1825
     27 N         138.1635  140.0424  164.8038 N.ar    1  UNL1       -0.2314
     28 C         137.9144  138.0172  166.5305 C.3     1  UNL1        0.4407
     29 F         137.3565  136.6956  166.9689 F       1  UNL1       -0.1640
     30 F         138.5396  137.3575  165.3371 F       1  UNL1       -0.1640
     31 F         137.2892  138.6769  167.7238 F       1  UNL1       -0.1640
@<TRIPOS>BOND
     1     1     2    2
     2     2    12    1
     3    12    13   ar
     4    13    14   ar
     5    14    15   ar
     6    15    18    1
     7    18    19   ar
     8    19    20   ar
     9    20    21   ar
    10    21    22   ar
    11    15    16   ar
    12    16    17   ar
    13     2     3   am
    14     3     4    1
    15     4     5    1
    16     5     6    1
    17     6     7   ar
    18     7     8   ar
    19     8     9   ar
    20     9    10   ar
    21    10    23    1
    22    23    24   ar
    23    24    25   ar
    24    25    26   ar
    25    26    28    1
    26    28    29    1
    27    28    30    1
    28    28    31    1
    29    26    27   ar
    30     7    11    1
    31    17    12   ar
    32    11     3    1
    33    22    18   ar
    34    10     6   ar
    35    27    23   ar
@<TRIPOS>MOLECULE
*****
 31 35 0 0 0
SMALL
GASTEIGER

@<TRIPOS>ATOM
      1 O         140.9940  136.7131  163.4860 O.2     1  UNL1       -0.2699
      2 C         140.7542  138.1915  163.5678 C.2     1  UNL1        0.2494
      3 N         140.1902  138.9263  162.3879 N.am    1  UNL1       -0.2670
      4 C         139.8660  138.1826  161.1263 C.3     1  UNL1        0.1186
      5 C         139.3020  138.9173  159.9465 C.3     1  UNL1        0.1302
      6 N         139.0622  140.3958  160.0283 N.ar    1  UNL1       -0.2944
      7 C         139.3864  141.1395  161.2899 C.ar    1  UNL1        0.1636
      8 N         139.0452  142.5845  161.0768 N.ar    1  UNL1       -0.1315
      9 N         138.5102  142.7339  159.6834 N.ar    1  UNL1       -0.1274
     10 C         138.5206  141.3812  159.0354 C.ar    1  UNL1        0.1845
     11 C         139.9504  140.4047  162.4697 C.3     1  UNL1        0.1599
     12 C         141.0784  138.9353  164.8295 C.ar    1  UNL1        0.0536
     13 C         142.4849  139.3836  165.0955 C.ar    1  UNL1        0.0045
     14 C         142.8090  140.1273  166.3572 C.ar    1  UNL1        0.0006
     15 C         141.7267  140.4227  167.3528 C.ar    1  UNL1        0.0060
     16 C         140.3202  139.9744  167.0868 C.ar    1  UNL1        0.0006
     17 C         139.9960  139.2307  165.8252 C.ar    1  UNL1        0.0045
     18 C         142.0509  141.1664  168.6144 C.ar    1  UNL1        0.0295
     19 C         143.0099  142.3129  168.7404 C.ar    1  UNL1        0.0070
     20 C         143.0248  142.7493  170.1754 C.ar    1  UNL1        0.0075
     21 C         142.0749  141.8725  170.9364 C.ar    1  UNL1        0.0354
     22 S         141.4731  140.8942  169.9716 S.2     1  UNL1       -0.0864
     23 C         138.0689  141.0687  157.6396 C.ar    1  UNL1        0.1241
     24 C         138.9575  140.8924  156.4440 C.ar    1  UNL1        0.0590
     25 S         138.0871  140.5924  155.2599 S.2     1  UNL1       -0.0620
     26 C         136.6606  140.5833  155.7235 C.ar    1  UNL1        0.1825
     27 N         136.6493  140.8776  157.1943 N.ar    1  UNL1       -0.2314
     28 C         135.4567  140.3251  154.8668 C.3     1  UNL1        0.4407
     29 F         134.2528  140.0669  154.0100 F       1  UNL1       -0.1640
     30 F         135.0416  141.7586  155.0182 F       1  UNL1       -0.1640
     31 F         135.8718  138.8917  154.7153 F       1  UNL1       -0.1640
@<TRIPOS>BOND
     1     1     2    2
     2     2    12    1
     3    12    13   ar
     4    13    14   ar
     5    14    15   ar
     6    15    18    1
     7    18    19   ar
     8    19    20   ar
     9    20    21   ar
    10    21    22   ar
    11    15    16   ar
    12    16    17   ar
    13     2     3   am
    14     3     4    1
    15     4     5    1
    16     5     6    1
    17     6     7   ar
    18     7     8   ar
    19     8     9   ar
    20     9    10   ar
    21    10    23    1
    22    23    24   ar
    23    24    25   ar
    24    25    26   ar
    25    26    28    1
    26    28    29    1
    27    28    30    1
    28    28    31    1
    29    26    27   ar
    30     7    11    1
    31    17    12   ar
    32    11     3    1
    33    22    18   ar
    34    10     6   ar
    35    27    23   ar
@<TRIPOS>MOLECULE
*****
 31 35 0 0 0
SMALL
GASTEIGER

@<TRIPOS>ATOM
      1 O         144.0879  138.9902  156.4628 O.2     1  UNL1       -0.2699
      2 C         142.9570  138.2524  157.1161 C.2     1  UNL1        0.2494
      3 N         142.0971  138.9449  158.1316 N.am    1  UNL1       -0.2670
      4 C         142.3681  140.3751  158.4937 C.3     1  UNL1        0.1186
      5 C         141.5082  141.0675  159.5091 C.3     1  UNL1        0.1302
      6 N         140.3773  140.3297  160.1624 N.ar    1  UNL1       -0.2944
      7 C         140.1063  138.8995  159.8003 C.ar    1  UNL1        0.1636
      8 N         138.9295  138.4327  160.6047 N.ar    1  UNL1       -0.1315
      9 N         138.4731  139.5744  161.4640 N.ar    1  UNL1       -0.1274
     10 C         139.3679  140.7468  161.1907 C.ar    1  UNL1        0.1845
     11 C         140.9662  138.2071  158.7849 C.3     1  UNL1        0.1599
     12 C         142.6860  136.8223  156.7540 C.ar    1  UNL1        0.0536
     13 C         141.7048  136.4967  155.6672 C.ar    1  UNL1        0.0045
     14 C         141.4338  135.0665  155.3051 C.ar    1  UNL1        0.0006
     15 C         142.1441  133.9619  156.0298 C.ar    1  UNL1        0.0060
     16 C         143.1253  134.2874  157.1166 C.ar    1  UNL1        0.0006
     17 C         143.3963  135.7175  157.4787 C.ar    1  UNL1        0.0045
     18 C         141.8731  132.5317  155.6677 C.ar    1  UNL1        0.0295
     19 C         140.7666  132.0410  154.7817 C.ar    1  UNL1        0.0070
     20 C         140.8707  130.5472  154.6944 C.ar    1  UNL1        0.0075
     21 C         142.0415  130.1146  155.5265 C.ar    1  UNL1        0.0354
     22 S         142.6610  131.3411  156.1280 S.2     1  UNL1       -0.0864
     23 C         139.2705  142.0989  161.8328 C.ar    1  UNL1        0.1241
     24 C         139.4218  143.4187  161.1362 C.ar    1  UNL1        0.0590
     25 S         139.2495  144.5041  162.1570 S.2     1  UNL1       -0.0620
     26 C         138.9916  143.8552  163.4846 C.ar    1  UNL1        0.1825
     27 N         139.0046  142.3686  163.2841 N.ar    1  UNL1       -0.2314
     28 C         138.7613  144.5676  164.7843 C.3     1  UNL1        0.4407
     29 F         138.5309  145.2800  166.0840 F       1  UNL1       -0.1640
     30 F         137.3283  144.1242  164.7733 F       1  UNL1       -0.1640
     31 F         140.1942  145.0110  164.7953 F       1  UNL1       -0.1640
@<TRIPOS>BOND
     1     1     2    2
     2     2    12    1
     3    12    13   ar
     4    13    14   ar
     5    14    15   ar
     6    15    18    1
     7    18    19   ar
     8    19    20   ar
     9    20    21   ar
    10    21    22   ar
    11    15    16   ar
    12    16    17   ar
    13     2     3   am
    14     3     4    1
    15     4     5    1
    16     5     6    1
    17     6     7   ar
    18     7     8   ar
    19     8     9   ar
    20     9    10   ar
    21    10    23    1
    22    23    24   ar
    23    24    25   ar
    24    25    26   ar
    25    26    28    1
    26    28    29    1
    27    28    30    1
    28    28    31    1
    29    26    27   ar
    30     7    11    1
    31    17    12   ar
    32    11     3    1
    33    22    18   ar
    34    10     6   ar
    35    27    23   ar
@<TRIPOS>MOLECULE
*****
 31 35 0 0 0
SMALL
GASTEIGER

@<TRIPOS>ATOM
      1 O         141.2382  145.4878  163.0910 O.2     1  UNL1       -0.2699
      2 C         140.8358  144.0626  163.3290 C.2     1  UNL1        0.2494
      3 N         140.1768  143.2765  162.2344 N.am    1  UNL1       -0.2670
      4 C         139.9204  143.9158  160.9019 C.3     1  UNL1        0.1186
      5 C         139.2615  143.1298  159.8075 C.3     1  UNL1        0.1302
      6 N         138.8590  141.7045  160.0454 N.ar    1  UNL1       -0.2944
      7 C         139.1155  141.0653  161.3779 C.ar    1  UNL1        0.1636
      8 N         138.6120  139.6535  161.3193 N.ar    1  UNL1       -0.1315
      9 N         138.0443  139.4203  159.9506 N.ar    1  UNL1       -0.1274
     10 C         138.1969  140.6878  159.1633 C.ar    1  UNL1        0.1845
     11 C         139.7744  141.8513  162.4724 C.3     1  UNL1        0.1599
     12 C         141.0923  143.4233  164.6615 C.ar    1  UNL1        0.0536
     13 C         142.3972  142.7312  164.9225 C.ar    1  UNL1        0.0045
     14 C         142.6536  142.0919  166.2551 C.ar    1  UNL1        0.0006
     15 C         141.6052  142.1448  167.3265 C.ar    1  UNL1        0.0060
     16 C         140.3003  142.8369  167.0654 C.ar    1  UNL1        0.0006
     17 C         140.0438  143.4761  165.7329 C.ar    1  UNL1        0.0045
     18 C         141.8617  141.5055  168.6590 C.ar    1  UNL1        0.0295
     19 C         142.5974  140.2195  168.8928 C.ar    1  UNL1        0.0070
     20 C         142.6179  139.9592  170.3699 C.ar    1  UNL1        0.0075
     21 C         141.8948  141.0844  171.0490 C.ar    1  UNL1        0.0354
     22 S         141.4274  142.0400  169.9915 S.2     1  UNL1       -0.0864
     23 C         137.7637  140.9013  157.7432 C.ar    1  UNL1        0.1241
     24 C         138.6219  141.4212  156.6282 C.ar    1  UNL1        0.0590
     25 S         137.7848  141.4736  155.3847 S.2     1  UNL1       -0.0620
     26 C         136.4092  140.9861  155.7310 C.ar    1  UNL1        0.1825
     27 N         136.3961  140.6324  157.1887 N.ar    1  UNL1       -0.2314
     28 C         135.2501  140.8723  154.7857 C.3     1  UNL1        0.4407
     29 F         134.0910  140.7585  153.8404 F       1  UNL1       -0.1640
     30 F         134.7891  139.6363  155.4998 F       1  UNL1       -0.1640
     31 F         135.7111  142.1083  154.0717 F       1  UNL1       -0.1640
@<TRIPOS>BOND
     1     1     2    2
     2     2    12    1
     3    12    13   ar
     4    13    14   ar
     5    14    15   ar
     6    15    18    1
     7    18    19   ar
     8    19    20   ar
     9    20    21   ar
    10    21    22   ar
    11    15    16   ar
    12    16    17   ar
    13     2     3   am
    14     3     4    1
    15     4     5    1
    16     5     6    1
    17     6     7   ar
    18     7     8   ar
    19     8     9   ar
    20     9    10   ar
    21    10    23    1
    22    23    24   ar
    23    24    25   ar
    24    25    26   ar
    25    26    28    1
    26    28    29    1
    27    28    30    1
    28    28    31    1
    29    26    27   ar
    30     7    11    1
    31    17    12   ar
    32    11     3    1
    33    22    18   ar
    34    10     6   ar
    35    27    23   ar
@<TRIPOS>MOLECULE
*****
 31 35 0 0 0
SMALL
GASTEIGER

@<TRIPOS>ATOM
      1 O         140.8419  136.6814  163.2174 O.2     1  UNL1       -0.2699
      2 C         140.4450  138.1095  163.4471 C.2     1  UNL1        0.2494
      3 N         139.9157  138.9330  162.3105 N.am    1  UNL1       -0.2670
      4 C         139.7832  138.3282  160.9442 C.3     1  UNL1        0.1186
      5 C         139.2538  139.1516  159.8077 C.3     1  UNL1        0.1302
      6 N         138.8570  140.5798  160.0374 N.ar    1  UNL1       -0.2944
      7 C         138.9895  141.1846  161.4037 C.ar    1  UNL1        0.1636
      8 N         138.5218  142.6078  161.3279 N.ar    1  UNL1       -0.1315
      9 N         138.1003  142.8826  159.9148 N.ar    1  UNL1       -0.1274
     10 C         138.3075  141.6293  159.1172 C.ar    1  UNL1        0.1845
     11 C         139.5188  140.3612  162.5402 C.3     1  UNL1        0.1599
     12 C         140.5775  138.7143  164.8133 C.ar    1  UNL1        0.0536
     13 C         139.3559  138.9472  165.6521 C.ar    1  UNL1        0.0045
     14 C         139.4885  139.5520  167.0184 C.ar    1  UNL1        0.0006
     15 C         140.8425  139.9239  167.5459 C.ar    1  UNL1        0.0060
     16 C         142.0641  139.6910  166.7071 C.ar    1  UNL1        0.0006
     17 C         141.9316  139.0862  165.3409 C.ar    1  UNL1        0.0045
     18 C         140.9750  140.5287  168.9121 C.ar    1  UNL1        0.0295
     19 C         139.9648  141.4066  169.5894 C.ar    1  UNL1        0.0070
     20 C         140.5064  141.7823  170.9368 C.ar    1  UNL1        0.0075
     21 C         141.8513  141.1364  171.0923 C.ar    1  UNL1        0.0354
     22 S         142.1409  140.3617  169.8410 S.2     1  UNL1       -0.0864
     23 C         138.0162  141.4558  157.6560 C.ar    1  UNL1        0.1241
     24 C         138.4464  142.3798  156.5555 C.ar    1  UNL1        0.0590
     25 S         137.9398  141.8230  155.2582 S.2     1  UNL1       -0.0620
     26 C         137.1964  140.5548  155.5568 C.ar    1  UNL1        0.1825
     27 N         137.2437  140.3279  157.0388 N.ar    1  UNL1       -0.2314
     28 C         136.5239  139.6691  154.5502 C.3     1  UNL1        0.4407
     29 F         135.8514  138.7834  153.5437 F       1  UNL1       -0.1640
     30 F         135.3083  139.5968  155.4262 F       1  UNL1       -0.1640
     31 F         137.7395  139.7415  153.6744 F       1  UNL1       -0.1640
@<TRIPOS>BOND
     1     1     2    2
     2     2    12    1
     3    12    13   ar
     4    13    14   ar
     5    14    15   ar
     6    15    18    1
     7    18    19   ar
     8    19    20   ar
     9    20    21   ar
    10    21    22   ar
    11    15    16   ar
    12    16    17   ar
    13     2     3   am
    14     3     4    1
    15     4     5    1
    16     5     6    1
    17     6     7   ar
    18     7     8   ar
    19     8     9   ar
    20     9    10   ar
    21    10    23    1
    22    23    24   ar
    23    24    25   ar
    24    25    26   ar
    25    26    28    1
    26    28    29    1
    27    28    30    1
    28    28    31    1
    29    26    27   ar
    30     7    11    1
    31    17    12   ar
    32    11     3    1
    33    22    18   ar
    34    10     6   ar
    35    27    23   ar
@<TRIPOS>MOLECULE
*****
 31 35 0 0 0
SMALL
GASTEIGER

@<TRIPOS>ATOM
      1 O         144.9864  137.6106  155.4076 O.2     1  UNL1       -0.2699
      2 C         143.7027  137.1782  156.0518 C.2     1  UNL1        0.2494
      3 N         142.9274  138.1422  156.9002 N.am    1  UNL1       -0.2670
      4 C         143.4360  139.5385  157.1044 C.3     1  UNL1        0.1186
      5 C         142.6607  140.5024  157.9529 C.3     1  UNL1        0.1302
      6 N         141.3770  140.0700  158.5971 N.ar    1  UNL1       -0.2944
      7 C         140.8684  138.6737  158.3928 C.ar    1  UNL1        0.1636
      8 N         139.5807  138.5341  159.1493 N.ar    1  UNL1       -0.1315
      9 N         139.2934  139.8442  159.8211 N.ar    1  UNL1       -0.1274
     10 C         140.4035  140.7934  159.4798 C.ar    1  UNL1        0.1845
     11 C         141.6437  137.7098  157.5444 C.3     1  UNL1        0.1599
     12 C         143.1941  135.7820  155.8475 C.ar    1  UNL1        0.0536
     13 C         143.5852  134.6940  156.8033 C.ar    1  UNL1        0.0045
     14 C         143.0766  133.2977  156.5990 C.ar    1  UNL1        0.0006
     15 C         142.1770  132.9893  155.4390 C.ar    1  UNL1        0.0060
     16 C         141.7860  134.0773  154.4833 C.ar    1  UNL1        0.0006
     17 C         142.2945  135.4735  154.6875 C.ar    1  UNL1        0.0045
     18 C         141.6685  131.5930  155.2348 C.ar    1  UNL1        0.0295
     19 C         140.3871  131.2121  154.5545 C.ar    1  UNL1        0.0070
     20 C         140.2787  129.7162  154.5743 C.ar    1  UNL1        0.0075
     21 C         141.4932  129.1725  155.2668 C.ar    1  UNL1        0.0354
     22 S         142.3521  130.3325  155.6750 S.2     1  UNL1       -0.0864
     23 C         140.5198  142.2162  159.9403 C.ar    1  UNL1        0.1241
     24 C         140.1457  143.4330  159.1470 C.ar    1  UNL1        0.0590
     25 S         140.4253  144.6408  159.9914 S.2     1  UNL1       -0.0620
     26 C         140.9722  144.1705  161.3065 C.ar    1  UNL1        0.1825
     27 N         141.0306  142.6720  161.2750 N.ar    1  UNL1       -0.2314
     28 C         141.3878  145.0452  162.4521 C.3     1  UNL1        0.4407
     29 F         141.8033  145.9198  163.5977 F       1  UNL1       -0.1640
     30 F         142.3185  143.9719  162.9338 F       1  UNL1       -0.1640
     31 F         140.4570  146.1183  161.9704 F       1  UNL1       -0.1640
@<TRIPOS>BOND
     1     1     2    2
     2     2    12    1
     3    12    13   ar
     4    13    14   ar
     5    14    15   ar
     6    15    18    1
     7    18    19   ar
     8    19    20   ar
     9    20    21   ar
    10    21    22   ar
    11    15    16   ar
    12    16    17   ar
    13     2     3   am
    14     3     4    1
    15     4     5    1
    16     5     6    1
    17     6     7   ar
    18     7     8   ar
    19     8     9   ar
    20     9    10   ar
    21    10    23    1
    22    23    24   ar
    23    24    25   ar
    24    25    26   ar
    25    26    28    1
    26    28    29    1
    27    28    30    1
    28    28    31    1
    29    26    27   ar
    30     7    11    1
    31    17    12   ar
    32    11     3    1
    33    22    18   ar
    34    10     6   ar
    35    27    23   ar
