@<TRIPOS>MOLECULE
*****
 31 35 0 0 0
SMALL
GASTEIGER

@<TRIPOS>ATOM
      1 C         139.6699  139.6207  166.0000 C.ar    1  UNL1        0.0670
      2 C         138.4347  138.7739  165.9160 C.ar    1  UNL1        0.0191
      3 C         137.6081  138.5293  167.1435 C.ar    1  UNL1        0.0203
      4 C         138.0169  139.1315  168.4551 C.ar    1  UNL1        0.0802
      5 C         139.2522  139.9782  168.5392 C.ar    1  UNL1        0.0396
      6 C         139.4044  140.4362  169.9594 C.ar    1  UNL1        0.1216
      7 N         138.2633  139.8725  170.7532 N.ar    1  UNL1       -0.1672
      8 N         137.4057  139.0661  169.8235 N.ar    1  UNL1       -0.2384
      9 C         140.0787  140.2228  167.3116 C.ar    1  UNL1        0.0207
     10 O         142.1965  138.0646  165.5583 O.2     1  UNL1       -0.2665
     11 C         141.7598  139.0873  164.5515 C.ar    1  UNL1        0.2679
     12 C         142.5864  139.3318  163.3240 C.ar    1  UNL1        0.0980
     13 C         142.1497  140.3545  162.3172 C.ar    1  UNL1        0.1453
     14 C         140.8864  141.1325  162.5380 C.ar    1  UNL1        0.0561
     15 C         140.0598  140.8879  163.7657 C.ar    1  UNL1        0.0860
     16 N         140.4965  139.8653  164.7724 N.ar    1  UNL1       -0.2729
     17 O         142.9762  140.5991  161.0897 O.3     1  UNL1       -0.4704
     18 C         143.9021  141.7777  161.0316 C.3     1  UNL1        0.2320
     19 C         143.9920  142.7190  162.1961 C.ar    1  UNL1        0.0212
     20 C         143.2795  144.0381  162.1510 C.ar    1  UNL1       -0.0007
     21 C         143.3694  144.9793  163.3154 C.ar    1  UNL1       -0.0002
     22 C         144.1719  144.6013  164.5250 C.ar    1  UNL1       -0.0000
     23 C         144.8845  143.2822  164.5702 C.ar    1  UNL1       -0.0002
     24 C         144.7945  142.3410  163.4057 C.ar    1  UNL1       -0.0007
     25 C         136.1563  138.3246  170.1966 C.3     1  UNL1        0.2431
     26 C         136.0128  137.7407  171.5708 C.2     1  UNL1        0.3168
     27 N         136.6391  136.4676  172.0577 N.2     1  UNL1       -0.0631
     28 C         136.2312  136.2675  173.4872 C.3     1  UNL1        0.3130
     29 C         135.3528  137.4169  173.8839 C.3     1  UNL1        0.2575
     30 N         135.2178  138.3274  172.6995 N.pl3   1  UNL1       -0.2173
     31 H         134.6986  139.1633  172.6683 H       1  UNL1        0.2921
@<TRIPOS>BOND
     1    10    11    2
     2    11    12   ar
     3    12    13   ar
     4    13    17    1
     5    17    18    1
     6    18    19    1
     7    19    20   ar
     8    20    21   ar
     9    21    22   ar
    10    22    23   ar
    11    23    24   ar
    12    13    14   ar
    13    14    15   ar
    14    15    16   ar
    15    16     1    1
    16     1     2   ar
    17     2     3   ar
    18     3     4   ar
    19     4     5   ar
    20     5     6   ar
    21     6     7   ar
    22     7     8   ar
    23     8    25    1
    24    25    26    1
    25    26    27    2
    26    27    28    1
    27    28    29    1
    28    29    30    1
    29     5     9   ar
    30    16    11   ar
    31     9     1   ar
    32    24    19   ar
    33     8     4   ar
    34    30    26    1
    35    30    31    1
@<TRIPOS>MOLECULE
*****
 31 35 0 0 0
SMALL
GASTEIGER

@<TRIPOS>ATOM
      1 C         140.0963  143.9843  160.5451 C.ar    1  UNL1        0.0670
      2 C         140.8309  145.2187  160.1135 C.ar    1  UNL1        0.0191
      3 C         140.8292  145.6263  158.6700 C.ar    1  UNL1        0.0203
      4 C         140.0927  144.7995  157.6581 C.ar    1  UNL1        0.0802
      5 C         139.3581  143.5650  158.0897 C.ar    1  UNL1        0.0396
      6 C         138.7258  142.9534  156.8748 C.ar    1  UNL1        0.1216
      7 N         139.0696  143.8098  155.6923 N.ar    1  UNL1       -0.1672
      8 N         139.9145  144.9508  156.1764 N.ar    1  UNL1       -0.2384
      9 C         139.3599  143.1574  159.5332 C.ar    1  UNL1        0.0207
     10 O         137.8990  144.9075  162.3671 O.2     1  UNL1       -0.2665
     11 C         138.9994  144.0382  162.8997 C.ar    1  UNL1        0.2679
     12 C         139.0011  143.6306  164.3432 C.ar    1  UNL1        0.0980
     13 C         140.1014  142.7613  164.8758 C.ar    1  UNL1        0.1453
     14 C         141.2001  142.2997  163.9649 C.ar    1  UNL1        0.0561
     15 C         141.1984  142.7074  162.5213 C.ar    1  UNL1        0.0860
     16 N         140.0980  143.5766  161.9887 N.ar    1  UNL1       -0.2729
     17 O         140.1031  142.3537  166.3194 O.3     1  UNL1       -0.4704
     18 C         140.6346  141.0089  166.7183 C.3     1  UNL1        0.2320
     19 C         139.8681  139.7668  166.3722 C.ar    1  UNL1        0.0212
     20 C         138.5909  139.4487  167.0916 C.ar    1  UNL1       -0.0007
     21 C         137.8246  138.2066  166.7455 C.ar    1  UNL1       -0.0002
     22 C         138.3354  137.2826  165.6800 C.ar    1  UNL1       -0.0000
     23 C         139.6125  137.6007  164.9606 C.ar    1  UNL1       -0.0002
     24 C         140.3789  138.8428  165.3067 C.ar    1  UNL1       -0.0007
     25 C         140.4815  146.0501  155.3278 C.3     1  UNL1        0.2431
     26 C         139.8589  147.4145  155.3537 C.2     1  UNL1        0.3168
     27 N         140.0726  148.5005  154.3412 N.2     1  UNL1       -0.0631
     28 C         139.2591  149.6897  154.7582 C.3     1  UNL1        0.3130
     29 C         138.5425  149.3388  156.0285 C.3     1  UNL1        0.2575
     30 N         138.9132  147.9327  156.3964 N.pl3   1  UNL1       -0.2173
     31 H         138.5922  147.4368  157.1840 H       1  UNL1        0.2921
@<TRIPOS>BOND
     1    10    11    2
     2    11    12   ar
     3    12    13   ar
     4    13    17    1
     5    17    18    1
     6    18    19    1
     7    19    20   ar
     8    20    21   ar
     9    21    22   ar
    10    22    23   ar
    11    23    24   ar
    12    13    14   ar
    13    14    15   ar
    14    15    16   ar
    15    16     1    1
    16     1     2   ar
    17     2     3   ar
    18     3     4   ar
    19     4     5   ar
    20     5     6   ar
    21     6     7   ar
    22     7     8   ar
    23     8    25    1
    24    25    26    1
    25    26    27    2
    26    27    28    1
    27    28    29    1
    28    29    30    1
    29     5     9   ar
    30    16    11   ar
    31     9     1   ar
    32    24    19   ar
    33     8     4   ar
    34    30    26    1
    35    30    31    1
@<TRIPOS>MOLECULE
*****
 31 35 0 0 0
SMALL
GASTEIGER

@<TRIPOS>ATOM
      1 C         141.5762  142.0546  162.9793 C.ar    1  UNL1        0.0670
      2 C         141.8719  141.4732  161.6286 C.ar    1  UNL1        0.0191
      3 C         141.5140  142.2374  160.3885 C.ar    1  UNL1        0.0203
      4 C         140.8604  143.5830  160.4992 C.ar    1  UNL1        0.0802
      5 C         140.5647  144.1644  161.8499 C.ar    1  UNL1        0.0396
      6 C         139.9180  145.5025  161.6471 C.ar    1  UNL1        0.1216
      7 N         139.8139  145.7481  160.1709 N.ar    1  UNL1       -0.1672
      8 N         140.3964  144.5618  159.4615 N.ar    1  UNL1       -0.2384
      9 C         140.9226  143.4002  163.0900 C.ar    1  UNL1        0.0207
     10 O         140.1216  139.5180  163.6503 O.2     1  UNL1       -0.2665
     11 C         141.2067  140.0221  164.5550 C.ar    1  UNL1        0.2679
     12 C         141.5646  139.2579  165.7951 C.ar    1  UNL1        0.0980
     13 C         142.6497  139.7620  166.6998 C.ar    1  UNL1        0.1453
     14 C         143.3770  141.0302  166.3643 C.ar    1  UNL1        0.0561
     15 C         143.0192  141.7944  165.1242 C.ar    1  UNL1        0.0860
     16 N         141.9340  141.2904  164.2195 N.ar    1  UNL1       -0.2729
     17 O         143.0076  138.9978  167.9399 O.3     1  UNL1       -0.4704
     18 C         142.3372  139.3240  169.2415 C.3     1  UNL1        0.2320
     19 C         141.8870  140.7271  169.5223 C.ar    1  UNL1        0.0212
     20 C         142.8868  141.7682  169.9301 C.ar    1  UNL1       -0.0007
     21 C         142.4365  143.1712  170.2109 C.ar    1  UNL1       -0.0002
     22 C         140.9864  143.5331  170.0837 C.ar    1  UNL1       -0.0000
     23 C         139.9865  142.4920  169.6759 C.ar    1  UNL1       -0.0002
     24 C         140.4368  141.0890  169.3951 C.ar    1  UNL1       -0.0007
     25 C         140.4972  144.3852  157.9753 C.3     1  UNL1        0.2431
     26 C         139.8005  145.3452  157.0571 C.2     1  UNL1        0.3168
     27 N         138.9485  144.9772  155.8785 N.2     1  UNL1       -0.0631
     28 C         138.4550  146.2462  155.2492 C.3     1  UNL1        0.3130
     29 C         139.0019  147.3984  156.0387 C.3     1  UNL1        0.2575
     30 N         139.8334  146.8415  157.1560 N.pl3   1  UNL1       -0.2173
     31 H         140.3161  147.3661  157.8351 H       1  UNL1        0.2921
@<TRIPOS>BOND
     1    10    11    2
     2    11    12   ar
     3    12    13   ar
     4    13    17    1
     5    17    18    1
     6    18    19    1
     7    19    20   ar
     8    20    21   ar
     9    21    22   ar
    10    22    23   ar
    11    23    24   ar
    12    13    14   ar
    13    14    15   ar
    14    15    16   ar
    15    16     1    1
    16     1     2   ar
    17     2     3   ar
    18     3     4   ar
    19     4     5   ar
    20     5     6   ar
    21     6     7   ar
    22     7     8   ar
    23     8    25    1
    24    25    26    1
    25    26    27    2
    26    27    28    1
    27    28    29    1
    28    29    30    1
    29     5     9   ar
    30    16    11   ar
    31     9     1   ar
    32    24    19   ar
    33     8     4   ar
    34    30    26    1
    35    30    31    1
@<TRIPOS>MOLECULE
*****
 31 35 0 0 0
SMALL
GASTEIGER

@<TRIPOS>ATOM
      1 C         140.3271  143.7814  159.5193 C.ar    1  UNL1        0.0670
      2 C         140.9733  145.1100  159.2605 C.ar    1  UNL1        0.0191
      3 C         140.7536  145.8085  157.9514 C.ar    1  UNL1        0.0203
      4 C         139.8877  145.1784  156.9011 C.ar    1  UNL1        0.0802
      5 C         139.2414  143.8498  157.1600 C.ar    1  UNL1        0.0396
      6 C         138.4456  143.4768  155.9444 C.ar    1  UNL1        0.1216
      7 N         138.6000  144.5749  154.9343 N.ar    1  UNL1       -0.1672
      8 N         139.4913  145.6266  155.5256 N.ar    1  UNL1       -0.2384
      9 C         139.4611  143.1513  158.4690 C.ar    1  UNL1        0.0207
     10 O         138.1070  143.6335  161.5316 O.2     1  UNL1       -0.2665
     11 C         139.4367  143.0089  161.8346 C.ar    1  UNL1        0.2679
     12 C         139.6564  142.3103  163.1437 C.ar    1  UNL1        0.0980
     13 C         140.9861  141.6857  163.4467 C.ar    1  UNL1        0.1453
     14 C         142.0962  141.7597  162.4406 C.ar    1  UNL1        0.0561
     15 C         141.8765  142.4583  161.1314 C.ar    1  UNL1        0.0860
     16 N         140.5468  143.0828  160.8285 N.ar    1  UNL1       -0.2729
     17 O         141.2058  140.9872  164.7558 O.3     1  UNL1       -0.4704
     18 C         140.0358  140.6520  165.6325 C.3     1  UNL1        0.2320
     19 C         140.0212  141.0949  167.0657 C.ar    1  UNL1        0.0212
     20 C         139.4971  140.1762  168.1292 C.ar    1  UNL1       -0.0007
     21 C         139.4826  140.6191  169.5623 C.ar    1  UNL1       -0.0002
     22 C         139.9922  141.9806  169.9317 C.ar    1  UNL1       -0.0000
     23 C         140.5163  142.8993  168.8681 C.ar    1  UNL1       -0.0002
     24 C         140.5309  142.4564  167.4351 C.ar    1  UNL1       -0.0007
     25 C         139.9122  146.9024  154.8585 C.3     1  UNL1        0.2431
     26 C         139.3519  148.2132  155.3254 C.2     1  UNL1        0.3168
     27 N         139.4019  149.5110  154.5748 N.2     1  UNL1       -0.0631
     28 C         138.7241  150.5561  155.4103 C.3     1  UNL1        0.3130
     29 C         138.2551  149.9044  156.6773 C.3     1  UNL1        0.2575
     30 N         138.6431  148.4564  156.6248 N.pl3   1  UNL1       -0.2173
     31 H         138.4640  147.7837  157.3210 H       1  UNL1        0.2921
@<TRIPOS>BOND
     1    10    11    2
     2    11    12   ar
     3    12    13   ar
     4    13    17    1
     5    17    18    1
     6    18    19    1
     7    19    20   ar
     8    20    21   ar
     9    21    22   ar
    10    22    23   ar
    11    23    24   ar
    12    13    14   ar
    13    14    15   ar
    14    15    16   ar
    15    16     1    1
    16     1     2   ar
    17     2     3   ar
    18     3     4   ar
    19     4     5   ar
    20     5     6   ar
    21     6     7   ar
    22     7     8   ar
    23     8    25    1
    24    25    26    1
    25    26    27    2
    26    27    28    1
    27    28    29    1
    28    29    30    1
    29     5     9   ar
    30    16    11   ar
    31     9     1   ar
    32    24    19   ar
    33     8     4   ar
    34    30    26    1
    35    30    31    1
@<TRIPOS>MOLECULE
*****
 31 35 0 0 0
SMALL
GASTEIGER

@<TRIPOS>ATOM
      1 C         141.7906  143.8342  161.5898 C.ar    1  UNL1        0.0670
      2 C         140.8730  142.8373  162.2332 C.ar    1  UNL1        0.0191
      3 C         141.1598  142.3390  163.6186 C.ar    1  UNL1        0.0203
      4 C         142.3643  142.8377  164.3606 C.ar    1  UNL1        0.0802
      5 C         143.2820  143.8346  163.7172 C.ar    1  UNL1        0.0396
      6 C         144.3844  144.1429  164.6865 C.ar    1  UNL1        0.1216
      7 N         144.1481  143.3365  165.9291 N.ar    1  UNL1       -0.1672
      8 N         142.8996  142.5298  165.7277 N.ar    1  UNL1       -0.2384
      9 C         142.9951  144.3329  162.3318 C.ar    1  UNL1        0.0207
     10 O         139.6368  145.8747  161.1456 O.2     1  UNL1       -0.2665
     11 C         140.4269  145.3527  159.9822 C.ar    1  UNL1        0.2679
     12 C         140.1401  145.8510  158.5968 C.ar    1  UNL1        0.0980
     13 C         140.9302  145.3291  157.4334 C.ar    1  UNL1        0.1453
     14 C         142.0071  144.3089  157.6555 C.ar    1  UNL1        0.0561
     15 C         142.2939  143.8106  159.0410 C.ar    1  UNL1        0.0860
     16 N         141.5038  144.3325  160.2043 N.ar    1  UNL1       -0.2729
     17 O         140.6433  145.8274  156.0480 O.3     1  UNL1       -0.4704
     18 C         139.3106  146.4388  155.7319 C.3     1  UNL1        0.2320
     19 C         139.2051  147.9112  155.4654 C.ar    1  UNL1        0.0212
     20 C         138.5417  148.8090  156.4672 C.ar    1  UNL1       -0.0007
     21 C         138.4362  150.2814  156.2007 C.ar    1  UNL1       -0.0002
     22 C         138.9941  150.8558  154.9323 C.ar    1  UNL1       -0.0000
     23 C         139.6575  149.9580  153.9305 C.ar    1  UNL1       -0.0002
     24 C         139.7630  148.4856  154.1970 C.ar    1  UNL1       -0.0007
     25 C         142.2929  141.5817  166.7192 C.3     1  UNL1        0.2431
     26 C         142.2931  141.9226  168.1799 C.2     1  UNL1        0.3168
     27 N         141.1893  141.6320  169.1533 N.2     1  UNL1       -0.0631
     28 C         141.6111  142.1438  170.4987 C.3     1  UNL1        0.3130
     29 C         142.9756  142.7507  170.3569 C.3     1  UNL1        0.2575
     30 N         143.3970  142.6140  168.9239 N.pl3   1  UNL1       -0.2173
     31 H         144.2486  142.9237  168.5391 H       1  UNL1        0.2921
@<TRIPOS>BOND
     1    10    11    2
     2    11    12   ar
     3    12    13   ar
     4    13    17    1
     5    17    18    1
     6    18    19    1
     7    19    20   ar
     8    20    21   ar
     9    21    22   ar
    10    22    23   ar
    11    23    24   ar
    12    13    14   ar
    13    14    15   ar
    14    15    16   ar
    15    16     1    1
    16     1     2   ar
    17     2     3   ar
    18     3     4   ar
    19     4     5   ar
    20     5     6   ar
    21     6     7   ar
    22     7     8   ar
    23     8    25    1
    24    25    26    1
    25    26    27    2
    26    27    28    1
    27    28    29    1
    28    29    30    1
    29     5     9   ar
    30    16    11   ar
    31     9     1   ar
    32    24    19   ar
    33     8     4   ar
    34    30    26    1
    35    30    31    1
@<TRIPOS>MOLECULE
*****
 31 35 0 0 0
SMALL
GASTEIGER

@<TRIPOS>ATOM
      1 C         140.4908  139.2261  158.7229 C.ar    1  UNL1        0.0670
      2 C         141.8772  138.7945  159.0991 C.ar    1  UNL1        0.0191
      3 C         142.5646  137.7147  158.3172 C.ar    1  UNL1        0.0203
      4 C         141.8657  137.0666  157.1590 C.ar    1  UNL1        0.0802
      5 C         140.4793  137.4982  156.7828 C.ar    1  UNL1        0.0396
      6 C         140.0446  136.6827  155.6012 C.ar    1  UNL1        0.1216
      7 N         141.1623  135.7471  155.2472 N.ar    1  UNL1       -0.1672
      8 N         142.2879  135.9843  156.2099 N.ar    1  UNL1       -0.2384
      9 C         139.7918  138.5779  157.5647 C.ar    1  UNL1        0.0207
     10 O         138.9178  138.5286  161.1803 O.2     1  UNL1       -0.2665
     11 C         139.0168  139.9572  160.7336 C.ar    1  UNL1        0.2679
     12 C         138.3293  141.0369  161.5155 C.ar    1  UNL1        0.0980
     13 C         138.4283  142.4655  161.0688 C.ar    1  UNL1        0.1453
     14 C         139.2148  142.8142  159.8400 C.ar    1  UNL1        0.0561
     15 C         139.9023  141.7344  159.0581 C.ar    1  UNL1        0.0860
     16 N         139.8033  140.3059  159.5048 N.ar    1  UNL1       -0.2729
     17 O         137.7408  143.5452  161.8507 O.3     1  UNL1       -0.4704
     18 C         138.1560  143.8279  163.2641 C.3     1  UNL1        0.2320
     19 C         139.6096  143.9781  163.6030 C.ar    1  UNL1        0.0212
     20 C         140.2754  142.9841  164.5077 C.ar    1  UNL1       -0.0007
     21 C         141.7288  143.1344  164.8465 C.ar    1  UNL1       -0.0002
     22 C         142.5165  144.2787  164.2807 C.ar    1  UNL1       -0.0000
     23 C         141.8506  145.2727  163.3759 C.ar    1  UNL1       -0.0002
     24 C         140.3972  145.1224  163.0371 C.ar    1  UNL1       -0.0007
     25 C         143.6044  135.2656  156.2216 C.3     1  UNL1        0.2431
     26 C         143.6707  133.8288  156.6473 C.2     1  UNL1        0.3168
     27 N         142.5360  132.8479  156.6202 N.2     1  UNL1       -0.0631
     28 C         143.0473  131.5335  157.1310 C.3     1  UNL1        0.3130
     29 C         144.4979  131.7020  157.4739 C.3     1  UNL1        0.2575
     30 N         144.8831  133.1205  157.1749 N.pl3   1  UNL1       -0.2173
     31 H         145.7751  133.5170  157.3025 H       1  UNL1        0.2921
@<TRIPOS>BOND
     1    10    11    2
     2    11    12   ar
     3    12    13   ar
     4    13    17    1
     5    17    18    1
     6    18    19    1
     7    19    20   ar
     8    20    21   ar
     9    21    22   ar
    10    22    23   ar
    11    23    24   ar
    12    13    14   ar
    13    14    15   ar
    14    15    16   ar
    15    16     1    1
    16     1     2   ar
    17     2     3   ar
    18     3     4   ar
    19     4     5   ar
    20     5     6   ar
    21     6     7   ar
    22     7     8   ar
    23     8    25    1
    24    25    26    1
    25    26    27    2
    26    27    28    1
    27    28    29    1
    28    29    30    1
    29     5     9   ar
    30    16    11   ar
    31     9     1   ar
    32    24    19   ar
    33     8     4   ar
    34    30    26    1
    35    30    31    1
@<TRIPOS>MOLECULE
*****
 31 35 0 0 0
SMALL
GASTEIGER

@<TRIPOS>ATOM
      1 C         140.9643  139.1681  163.8892 C.ar    1  UNL1        0.0670
      2 C         141.6329  140.1229  164.8333 C.ar    1  UNL1        0.0191
      3 C         141.0567  140.3544  166.1987 C.ar    1  UNL1        0.0203
      4 C         139.8120  139.6311  166.6201 C.ar    1  UNL1        0.0802
      5 C         139.1435  138.6762  165.6760 C.ar    1  UNL1        0.0396
      6 C         137.9371  138.1111  166.3654 C.ar    1  UNL1        0.1216
      7 N         137.8601  138.7167  167.7356 N.ar    1  UNL1       -0.1672
      8 N         139.0188  139.6561  167.8930 N.ar    1  UNL1       -0.2384
      9 C         139.7196  138.4447  164.3106 C.ar    1  UNL1        0.0207
     10 O         139.6673  140.4065  161.4842 O.2     1  UNL1       -0.2665
     11 C         140.8919  139.5558  161.3212 C.ar    1  UNL1        0.2679
     12 C         141.4680  139.3243  159.9558 C.ar    1  UNL1        0.0980
     13 C         142.6927  138.4735  159.7927 C.ar    1  UNL1        0.1453
     14 C         143.3412  137.8543  160.9952 C.ar    1  UNL1        0.0561
     15 C         142.7650  138.0858  162.3607 C.ar    1  UNL1        0.0860
     16 N         141.5405  138.9366  162.5237 N.ar    1  UNL1       -0.2729
     17 O         143.2687  138.2420  158.4273 O.3     1  UNL1       -0.4704
     18 C         142.3594  137.9677  157.2663 C.3     1  UNL1        0.2320
     19 C         142.2381  136.5755  156.7212 C.ar    1  UNL1        0.0212
     20 C         143.1207  135.4837  157.2494 C.ar    1  UNL1       -0.0007
     21 C         142.9993  134.0916  156.7042 C.ar    1  UNL1       -0.0002
     22 C         141.9953  133.7913  155.6310 C.ar    1  UNL1       -0.0000
     23 C         141.1127  134.8830  155.1029 C.ar    1  UNL1       -0.0002
     24 C         141.2341  136.2752  155.6480 C.ar    1  UNL1       -0.0007
     25 C         139.3298  140.4765  169.1096 C.3     1  UNL1        0.2431
     26 C         140.7448  140.5937  169.5936 C.2     1  UNL1        0.3168
     27 N         141.5862  139.4769  170.1366 N.2     1  UNL1       -0.0631
     28 C         142.9282  140.0412  170.4981 C.3     1  UNL1        0.3130
     29 C         142.9162  141.5068  170.1785 C.3     1  UNL1        0.2575
     30 N         141.5668  141.8482  169.6195 N.pl3   1  UNL1       -0.2173
     31 H         141.2723  142.7392  169.3218 H       1  UNL1        0.2921
@<TRIPOS>BOND
     1    10    11    2
     2    11    12   ar
     3    12    13   ar
     4    13    17    1
     5    17    18    1
     6    18    19    1
     7    19    20   ar
     8    20    21   ar
     9    21    22   ar
    10    22    23   ar
    11    23    24   ar
    12    13    14   ar
    13    14    15   ar
    14    15    16   ar
    15    16     1    1
    16     1     2   ar
    17     2     3   ar
    18     3     4   ar
    19     4     5   ar
    20     5     6   ar
    21     6     7   ar
    22     7     8   ar
    23     8    25    1
    24    25    26    1
    25    26    27    2
    26    27    28    1
    27    28    29    1
    28    29    30    1
    29     5     9   ar
    30    16    11   ar
    31     9     1   ar
    32    24    19   ar
    33     8     4   ar
    34    30    26    1
    35    30    31    1
@<TRIPOS>MOLECULE
*****
 31 35 0 0 0
SMALL
GASTEIGER

@<TRIPOS>ATOM
      1 C         139.4810  139.6463  163.1956 C.ar    1  UNL1        0.0670
      2 C         140.6943  140.2988  163.7889 C.ar    1  UNL1        0.0191
      3 C         140.8516  140.3757  165.2786 C.ar    1  UNL1        0.0203
      4 C         139.7956  139.8001  166.1750 C.ar    1  UNL1        0.0802
      5 C         138.5823  139.1476  165.5817 C.ar    1  UNL1        0.0396
      6 C         137.7140  138.6721  166.7086 C.ar    1  UNL1        0.1216
      7 N         138.3906  139.0308  167.9984 N.ar    1  UNL1       -0.1672
      8 N         139.6772  139.7279  167.6686 N.ar    1  UNL1       -0.2384
      9 C         138.4250  139.0707  164.0920 C.ar    1  UNL1        0.0207
     10 O         137.4039  141.3164  161.8185 O.2     1  UNL1       -0.2665
     11 C         138.2851  140.4044  161.0172 C.ar    1  UNL1        0.2679
     12 C         138.1276  140.3275  159.5275 C.ar    1  UNL1        0.0980
     13 C         139.0088  139.4155  158.7263 C.ar    1  UNL1        0.1453
     14 C         140.0474  138.5804  159.4148 C.ar    1  UNL1        0.0561
     15 C         140.2048  138.6574  160.9046 C.ar    1  UNL1        0.0860
     16 N         139.3236  139.5693  161.7058 N.ar    1  UNL1       -0.2729
     17 O         138.8514  139.3386  157.2366 O.3     1  UNL1       -0.4704
     18 C         138.4480  140.5576  156.4612 C.3     1  UNL1        0.2320
     19 C         137.1580  140.5666  155.6956 C.ar    1  UNL1        0.0212
     20 C         137.1385  140.1528  154.2540 C.ar    1  UNL1       -0.0007
     21 C         135.8486  140.1619  153.4886 C.ar    1  UNL1       -0.0002
     22 C         134.5781  140.5847  154.1648 C.ar    1  UNL1       -0.0000
     23 C         134.5977  140.9985  155.6064 C.ar    1  UNL1       -0.0002
     24 C         135.8876  140.9895  156.3718 C.ar    1  UNL1       -0.0007
     25 C         140.6708  140.2595  168.6586 C.3     1  UNL1        0.2431
     26 C         140.4286  141.5791  169.3295 C.2     1  UNL1        0.3168
     27 N         140.9686  142.9063  168.8855 N.2     1  UNL1       -0.0631
     28 C         140.4776  143.9506  169.8437 C.3     1  UNL1        0.3130
     29 C         139.6341  143.2689  170.8800 C.3     1  UNL1        0.2575
     30 N         139.6038  141.8033  170.5622 N.pl3   1  UNL1       -0.2173
     31 H         139.1265  141.1101  171.0730 H       1  UNL1        0.2921
@<TRIPOS>BOND
     1    10    11    2
     2    11    12   ar
     3    12    13   ar
     4    13    17    1
     5    17    18    1
     6    18    19    1
     7    19    20   ar
     8    20    21   ar
     9    21    22   ar
    10    22    23   ar
    11    23    24   ar
    12    13    14   ar
    13    14    15   ar
    14    15    16   ar
    15    16     1    1
    16     1     2   ar
    17     2     3   ar
    18     3     4   ar
    19     4     5   ar
    20     5     6   ar
    21     6     7   ar
    22     7     8   ar
    23     8    25    1
    24    25    26    1
    25    26    27    2
    26    27    28    1
    27    28    29    1
    28    29    30    1
    29     5     9   ar
    30    16    11   ar
    31     9     1   ar
    32    24    19   ar
    33     8     4   ar
    34    30    26    1
    35    30    31    1
@<TRIPOS>MOLECULE
*****
 31 35 0 0 0
SMALL
GASTEIGER

@<TRIPOS>ATOM
      1 C         140.7294  139.1545  161.9705 C.ar    1  UNL1        0.0670
      2 C         141.2920  140.4456  162.4866 C.ar    1  UNL1        0.0191
      3 C         140.9921  140.8873  163.8883 C.ar    1  UNL1        0.0203
      4 C         140.1296  140.0378  164.7740 C.ar    1  UNL1        0.0802
      5 C         139.5670  138.7467  164.2580 C.ar    1  UNL1        0.0396
      6 C         138.7549  138.1238  165.3546 C.ar    1  UNL1        0.1216
      7 N         138.8156  139.0300  166.5484 N.ar    1  UNL1       -0.1672
      8 N         139.6652  140.2130  166.1896 N.ar    1  UNL1       -0.2384
      9 C         139.8669  138.3050  162.8562 C.ar    1  UNL1        0.0207
     10 O         143.4114  137.9848  161.3078 O.2     1  UNL1       -0.2665
     11 C         142.3703  138.1279  160.2373 C.ar    1  UNL1        0.2679
     12 C         142.6702  137.6862  158.8356 C.ar    1  UNL1        0.0980
     13 C         141.6291  137.8292  157.7652 C.ar    1  UNL1        0.1453
     14 C         140.2881  138.4140  158.0966 C.ar    1  UNL1        0.0561
     15 C         139.9883  138.8558  159.4984 C.ar    1  UNL1        0.0860
     16 N         141.0293  138.7127  160.5687 N.ar    1  UNL1       -0.2729
     17 O         141.9290  137.3875  156.3635 O.3     1  UNL1       -0.4704
     18 C         143.0854  136.4699  156.0975 C.3     1  UNL1        0.2320
     19 C         142.8968  134.9837  156.1752 C.ar    1  UNL1        0.0212
     20 C         141.7989  134.3252  155.3936 C.ar    1  UNL1       -0.0007
     21 C         141.6104  132.8391  155.4713 C.ar    1  UNL1       -0.0002
     22 C         142.5198  132.0116  156.3305 C.ar    1  UNL1       -0.0000
     23 C         143.6177  132.6702  157.1121 C.ar    1  UNL1       -0.0002
     24 C         143.8062  134.1562  157.0344 C.ar    1  UNL1       -0.0007
     25 C         139.9929  141.3682  167.0885 C.3     1  UNL1        0.2431
     26 C         140.1783  141.1444  168.5600 C.2     1  UNL1        0.3168
     27 N         140.5504  142.1886  169.5707 N.2     1  UNL1       -0.0631
     28 C         140.6262  141.5267  170.9146 C.3     1  UNL1        0.3130
     29 C         140.3010  140.0735  170.7346 C.3     1  UNL1        0.2575
     30 N         140.0242  139.8372  169.2794 N.pl3   1  UNL1       -0.2173
     31 H         139.7836  138.9755  168.8686 H       1  UNL1        0.2921
@<TRIPOS>BOND
     1    10    11    2
     2    11    12   ar
     3    12    13   ar
     4    13    17    1
     5    17    18    1
     6    18    19    1
     7    19    20   ar
     8    20    21   ar
     9    21    22   ar
    10    22    23   ar
    11    23    24   ar
    12    13    14   ar
    13    14    15   ar
    14    15    16   ar
    15    16     1    1
    16     1     2   ar
    17     2     3   ar
    18     3     4   ar
    19     4     5   ar
    20     5     6   ar
    21     6     7   ar
    22     7     8   ar
    23     8    25    1
    24    25    26    1
    25    26    27    2
    26    27    28    1
    27    28    29    1
    28    29    30    1
    29     5     9   ar
    30    16    11   ar
    31     9     1   ar
    32    24    19   ar
    33     8     4   ar
    34    30    26    1
    35    30    31    1
