@<TRIPOS>MOLECULE
*****
 39 42 0 0 0
SMALL
GASTEIGER

@<TRIPOS>ATOM
      1 C         142.7146  139.0644  158.9569 C.3     1  UNL1        0.1678
      2 C         142.1000  138.6820  160.2707 C.2     1  UNL1        0.2492
      3 O         142.2107  137.2335  160.6440 O.2     1  UNL1       -0.2727
      4 N         141.3893  139.5568  161.2605 N.am    1  UNL1       -0.2518
      5 C         141.1177  141.0298  161.1811 C.ar    1  UNL1        0.0679
      6 C         140.3739  141.5159  162.3895 C.ar    1  UNL1        0.0169
      7 C         140.0022  142.9642  162.5091 C.ar    1  UNL1        0.0116
      8 C         140.3742  143.9263  161.4201 C.ar    1  UNL1        0.0698
      9 C         141.1180  143.4403  160.2117 C.ar    1  UNL1        0.0264
     10 C         141.4897  141.9920  160.0921 C.ar    1  UNL1        0.0682
     11 N         142.2252  141.7187  158.8137 N.am    1  UNL1       -0.2570
     12 C         142.4446  142.9053  157.9227 C.2     1  UNL1        0.2299
     13 C         141.9389  144.2562  158.3344 C.3     1  UNL1        0.0952
     14 O         143.1698  142.7411  156.6199 O.2     1  UNL1       -0.2745
     15 C         142.7704  140.4158  158.3084 C.3     1  UNL1        0.1066
     16 C         143.4628  140.4718  156.9790 C.3     1  UNL1        0.0242
     17 C         142.5348  137.0976  157.2689 C.2     1  UNL1        0.2371
     18 O         141.0668  137.3644  157.1144 O.2     1  UNL1       -0.2737
     19 N         143.3587  137.9475  158.1901 N.am    1  UNL1       -0.2959
     20 H         144.3222  137.7724  158.2915 H       1  UNL1        0.1499
     21 C         143.1788  135.9807  156.5022 C.3     1  UNL1        0.1316
     22 C         144.1429  136.2894  155.3952 C.3     1  UNL1        0.0270
     23 C         143.6588  133.8360  157.8877 C.3     1  UNL1        0.0862
     24 N         142.8589  134.5553  156.8424 N.3     1  UNL1       -0.2902
     25 H         141.8870  134.5374  157.1513 H       1  UNL1        0.1237
     26 C         140.0024  145.3747  161.5397 C.1     1  UNL1        0.1005
     27 N         139.6307  146.8229  161.6594 N.1     1  UNL1       -0.1908
     28 C         140.8833  138.8672  162.4928 C.3     1  UNL1        0.1245
     29 C         141.5741  139.0780  163.8075 C.ar    1  UNL1       -0.0059
     30 C         143.0725  139.0737  163.8763 C.ar    1  UNL1       -0.0242
     31 C         143.6515  138.9782  163.3367 C.3     1  UNL1        0.0308
     32 C         143.7635  139.2844  165.1909 C.ar    1  UNL1       -0.0045
     33 C         142.9560  139.4994  166.4366 C.ar    1  UNL1       -0.0003
     34 C         141.4576  139.5037  166.3677 C.ar    1  UNL1       -0.0003
     35 C         140.6501  139.7187  167.6134 C.ar    1  UNL1       -0.0000
     36 C         139.1517  139.7230  167.5444 C.ar    1  UNL1       -0.0000
     37 C         138.4607  139.5122  166.2298 C.ar    1  UNL1       -0.0000
     38 C         139.2683  139.2973  164.9842 C.ar    1  UNL1       -0.0003
     39 C         140.7666  139.2930  165.0531 C.ar    1  UNL1       -0.0027
@<TRIPOS>BOND
     1    23    24    1
     2    24    21    1
     3    21    22    1
     4    21    17    1
     5    17    18    2
     6    17    19   am
     7     1    19    1
     8     1     2    1
     9     2     3    2
    10     2     4   am
    11     4    28    1
    12    28    29    1
    13    29    30   ar
    14    30    31    1
    15    30    32   ar
    16    32    33   ar
    17    33    34   ar
    18    34    35   ar
    19    35    36   ar
    20    36    37   ar
    21    37    38   ar
    22    38    39   ar
    23     4     5    1
    24     5     6   ar
    25     6     7   ar
    26     7     8   ar
    27     8    26    1
    28    26    27    3
    29     8     9   ar
    30     9    10   ar
    31    10    11    1
    32    11    12   am
    33    12    13    1
    34    12    14    2
    35    11    15    1
    36    15    16    1
    37    15     1    1
    38    39    29   ar
    39    10     5   ar
    40    39    34   ar
    41    24    25    1
    42    19    20    1
@<TRIPOS>MOLECULE
*****
 39 42 0 0 0
SMALL
GASTEIGER

@<TRIPOS>ATOM
      1 C         141.3986  142.3700  160.2537 C.3     1  UNL1        0.1678
      2 C         142.3029  141.3855  160.9342 C.2     1  UNL1        0.2492
      3 O         142.9014  141.8406  162.2321 O.2     1  UNL1       -0.2727
      4 N         142.6879  140.0060  160.4883 N.am    1  UNL1       -0.2518
      5 C         142.2637  139.2702  159.2519 C.ar    1  UNL1        0.0679
      6 C         142.8820  137.9052  159.1872 C.ar    1  UNL1        0.0169
      7 C         142.5863  137.0022  158.0265 C.ar    1  UNL1        0.0116
      8 C         141.6723  137.4643  156.9306 C.ar    1  UNL1        0.0698
      9 C         141.0540  138.8294  156.9953 C.ar    1  UNL1        0.0264
     10 C         141.3497  139.7323  158.1559 C.ar    1  UNL1        0.0682
     11 N         140.6342  141.0443  158.0258 N.am    1  UNL1       -0.2570
     12 C         139.7846  141.2034  156.7999 C.2     1  UNL1        0.2299
     13 C         139.6932  140.0883  155.8007 C.3     1  UNL1        0.0952
     14 O         139.0264  142.4777  156.5730 O.2     1  UNL1       -0.2745
     15 C         140.6560  142.2182  158.9593 C.3     1  UNL1        0.1066
     16 C         139.8253  143.3959  158.5436 C.3     1  UNL1        0.0242
     17 C         140.1251  143.8318  161.9832 C.2     1  UNL1        0.2371
     18 O         139.2240  142.6745  162.2978 O.2     1  UNL1       -0.2737
     19 N         141.2124  143.6795  160.9612 N.am    1  UNL1       -0.2959
     20 H         141.8038  144.4390  160.7547 H       1  UNL1        0.1499
     21 C         139.9388  145.1413  162.6907 C.3     1  UNL1        0.1316
     22 C         139.6895  146.3918  161.9006 C.3     1  UNL1        0.0270
     23 C         138.7941  144.8464  165.0042 C.3     1  UNL1        0.0862
     24 N         140.0019  145.2003  164.1881 N.3     1  UNL1       -0.2902
     25 H         140.7480  144.5674  164.4766 H       1  UNL1        0.1237
     26 C         141.3766  136.5612  155.7699 C.1     1  UNL1        0.1005
     27 N         141.0810  135.6582  154.6093 N.1     1  UNL1       -0.1908
     28 C         143.6204  139.2641  161.3994 C.3     1  UNL1        0.1245
     29 C         143.2329  139.0131  162.8266 C.ar    1  UNL1       -0.0059
     30 C         144.2207  139.2644  163.9271 C.ar    1  UNL1       -0.0242
     31 C         144.9743  139.5234  163.9464 C.3     1  UNL1        0.0308
     32 C         143.8333  139.0135  165.3543 C.ar    1  UNL1       -0.0045
     33 C         142.4581  138.5112  165.6810 C.ar    1  UNL1       -0.0003
     34 C         141.4703  138.2600  164.5804 C.ar    1  UNL1       -0.0003
     35 C         140.0951  137.7578  164.9071 C.ar    1  UNL1       -0.0000
     36 C         139.1074  137.5065  163.8065 C.ar    1  UNL1       -0.0000
     37 C         139.4948  137.7574  162.3792 C.ar    1  UNL1       -0.0000
     38 C         140.8700  138.2596  162.0527 C.ar    1  UNL1       -0.0003
     39 C         141.8577  138.5109  163.1532 C.ar    1  UNL1       -0.0027
@<TRIPOS>BOND
     1    23    24    1
     2    24    21    1
     3    21    22    1
     4    21    17    1
     5    17    18    2
     6    17    19   am
     7     1    19    1
     8     1     2    1
     9     2     3    2
    10     2     4   am
    11     4    28    1
    12    28    29    1
    13    29    30   ar
    14    30    31    1
    15    30    32   ar
    16    32    33   ar
    17    33    34   ar
    18    34    35   ar
    19    35    36   ar
    20    36    37   ar
    21    37    38   ar
    22    38    39   ar
    23     4     5    1
    24     5     6   ar
    25     6     7   ar
    26     7     8   ar
    27     8    26    1
    28    26    27    3
    29     8     9   ar
    30     9    10   ar
    31    10    11    1
    32    11    12   am
    33    12    13    1
    34    12    14    2
    35    11    15    1
    36    15    16    1
    37    15     1    1
    38    39    29   ar
    39    10     5   ar
    40    39    34   ar
    41    24    25    1
    42    19    20    1
@<TRIPOS>MOLECULE
*****
 39 42 0 0 0
SMALL
GASTEIGER

@<TRIPOS>ATOM
      1 C         142.6767  139.0992  158.5633 C.3     1  UNL1        0.1678
      2 C         142.6855  138.8738  160.0462 C.2     1  UNL1        0.2492
      3 O         143.1882  137.5347  160.4980 O.2     1  UNL1       -0.2727
      4 N         142.2579  139.8104  161.1370 N.am    1  UNL1       -0.2518
      5 C         141.7161  141.2038  161.0144 C.ar    1  UNL1        0.0679
      6 C         141.4114  141.7936  162.3595 C.ar    1  UNL1        0.0169
      7 C         140.8585  143.1843  162.4607 C.ar    1  UNL1        0.0116
      8 C         140.6103  143.9851  161.2169 C.ar    1  UNL1        0.0698
      9 C         140.9151  143.3953  159.8718 C.ar    1  UNL1        0.0264
     10 C         141.4679  142.0046  159.7706 C.ar    1  UNL1        0.0682
     11 N         141.7003  141.6099  158.3423 N.am    1  UNL1       -0.2570
     12 C         141.3482  142.6451  157.3154 C.2     1  UNL1        0.2299
     13 C         140.8019  143.9739  157.7467 C.3     1  UNL1        0.0952
     14 O         141.5424  142.3516  155.8573 O.2     1  UNL1       -0.2745
     15 C         142.2383  140.3169  157.8049 C.3     1  UNL1        0.1066
     16 C         142.3530  140.2300  156.3118 C.3     1  UNL1        0.0242
     17 C         142.1933  137.0309  157.0671 C.2     1  UNL1        0.2371
     18 O         140.7195  137.2496  157.2410 O.2     1  UNL1       -0.2737
     19 N         143.1718  137.9557  157.7282 N.am    1  UNL1       -0.2959
     20 H         144.1391  137.8122  157.6141 H       1  UNL1        0.1499
     21 C         142.6884  135.8874  156.2321 C.3     1  UNL1        0.1316
     22 C         144.0242  135.9762  155.5554 C.3     1  UNL1        0.0270
     23 C         142.4744  133.2984  156.2011 C.3     1  UNL1        0.0862
     24 N         141.8478  134.6553  156.0737 N.3     1  UNL1       -0.2902
     25 H         141.1128  134.7076  156.7790 H       1  UNL1        0.1237
     26 C         140.0574  145.3759  161.3182 C.1     1  UNL1        0.1005
     27 N         139.5046  146.7666  161.4195 N.1     1  UNL1       -0.1908
     28 C         142.3897  139.2841  162.5355 C.3     1  UNL1        0.1245
     29 C         141.1625  138.9349  163.3242 C.ar    1  UNL1       -0.0059
     30 C         140.0538  138.1561  162.6805 C.ar    1  UNL1       -0.0242
     31 C         139.9415  137.8508  161.9528 C.3     1  UNL1        0.0308
     32 C         138.8266  137.8068  163.4692 C.ar    1  UNL1       -0.0045
     33 C         138.7081  138.2363  164.9015 C.ar    1  UNL1       -0.0003
     34 C         139.8168  139.0152  165.5451 C.ar    1  UNL1       -0.0003
     35 C         139.6982  139.4447  166.9774 C.ar    1  UNL1       -0.0000
     36 C         140.8069  140.2235  167.6210 C.ar    1  UNL1       -0.0000
     37 C         142.0342  140.5728  166.8324 C.ar    1  UNL1       -0.0000
     38 C         142.1526  140.1432  165.4001 C.ar    1  UNL1       -0.0003
     39 C         141.0440  139.3645  164.7565 C.ar    1  UNL1       -0.0027
@<TRIPOS>BOND
     1    23    24    1
     2    24    21    1
     3    21    22    1
     4    21    17    1
     5    17    18    2
     6    17    19   am
     7     1    19    1
     8     1     2    1
     9     2     3    2
    10     2     4   am
    11     4    28    1
    12    28    29    1
    13    29    30   ar
    14    30    31    1
    15    30    32   ar
    16    32    33   ar
    17    33    34   ar
    18    34    35   ar
    19    35    36   ar
    20    36    37   ar
    21    37    38   ar
    22    38    39   ar
    23     4     5    1
    24     5     6   ar
    25     6     7   ar
    26     7     8   ar
    27     8    26    1
    28    26    27    3
    29     8     9   ar
    30     9    10   ar
    31    10    11    1
    32    11    12   am
    33    12    13    1
    34    12    14    2
    35    11    15    1
    36    15    16    1
    37    15     1    1
    38    39    29   ar
    39    10     5   ar
    40    39    34   ar
    41    24    25    1
    42    19    20    1
@<TRIPOS>MOLECULE
*****
 39 42 0 0 0
SMALL
GASTEIGER

@<TRIPOS>ATOM
      1 C         141.1137  144.9913  156.9418 C.3     1  UNL1        0.1678
      2 C         140.6954  144.3331  158.2232 C.2     1  UNL1        0.2492
      3 O         139.9472  145.2042  159.1882 O.2     1  UNL1       -0.2727
      4 N         140.9264  142.9190  158.6670 N.am    1  UNL1       -0.2518
      5 C         141.6328  141.8139  157.9392 C.ar    1  UNL1        0.0679
      6 C         141.6415  140.5469  158.7421 C.ar    1  UNL1        0.0169
      7 C         142.3001  139.3159  158.1935 C.ar    1  UNL1        0.0116
      8 C         142.9499  139.3519  156.8420 C.ar    1  UNL1        0.0698
      9 C         142.9411  140.6189  156.0391 C.ar    1  UNL1        0.0264
     10 C         142.2826  141.8498  156.5877 C.ar    1  UNL1        0.0682
     11 N         142.3865  142.9999  155.6303 N.am    1  UNL1       -0.2570
     12 C         143.1057  142.7141  154.3454 C.2     1  UNL1        0.2299
     13 C         143.6654  141.3465  154.0873 C.3     1  UNL1        0.0952
     14 O         143.2653  143.7958  153.3185 O.2     1  UNL1       -0.2745
     15 C         141.8663  144.3980  155.7878 C.3     1  UNL1        0.1066
     16 C         142.1341  145.3253  154.6397 C.3     1  UNL1        0.0242
     17 C         139.4272  146.7998  156.1448 C.2     1  UNL1        0.2371
     18 O         138.5112  145.7238  155.6415 O.2     1  UNL1       -0.2737
     19 N         140.7284  146.4335  156.7950 N.am    1  UNL1       -0.2959
     20 H         141.3296  147.1397  157.1253 H       1  UNL1        0.1499
     21 C         139.0420  148.2420  155.9980 C.3     1  UNL1        0.1316
     22 C         139.2828  148.9542  154.7000 C.3     1  UNL1        0.0270
     23 C         138.4202  150.4717  157.1777 C.3     1  UNL1        0.0862
     24 N         138.4159  148.9720  157.1491 N.3     1  UNL1       -0.2902
     25 H         137.4395  148.6796  157.1872 H       1  UNL1        0.1237
     26 C         143.6084  138.1208  156.2934 C.1     1  UNL1        0.1005
     27 N         144.2669  136.8898  155.7449 N.1     1  UNL1       -0.1908
     28 C         140.3787  142.5630  160.0172 C.3     1  UNL1        0.1245
     29 C         140.9357  143.2145  161.2483 C.ar    1  UNL1       -0.0059
     30 C         142.4119  143.4515  161.3686 C.ar    1  UNL1       -0.0242
     31 C         143.0369  143.3038  160.8963 C.3     1  UNL1        0.0308
     32 C         142.9690  144.1030  162.5996 C.ar    1  UNL1       -0.0045
     33 C         142.0498  144.5174  163.7102 C.ar    1  UNL1       -0.0003
     34 C         140.5736  144.2803  163.5898 C.ar    1  UNL1       -0.0003
     35 C         139.6544  144.6948  164.7004 C.ar    1  UNL1       -0.0000
     36 C         138.1782  144.4577  164.5799 C.ar    1  UNL1       -0.0000
     37 C         137.6211  143.8062  163.3489 C.ar    1  UNL1       -0.0000
     38 C         138.5403  143.3918  162.2384 C.ar    1  UNL1       -0.0003
     39 C         140.0164  143.6289  162.3588 C.ar    1  UNL1       -0.0027
@<TRIPOS>BOND
     1    23    24    1
     2    24    21    1
     3    21    22    1
     4    21    17    1
     5    17    18    2
     6    17    19   am
     7     1    19    1
     8     1     2    1
     9     2     3    2
    10     2     4   am
    11     4    28    1
    12    28    29    1
    13    29    30   ar
    14    30    31    1
    15    30    32   ar
    16    32    33   ar
    17    33    34   ar
    18    34    35   ar
    19    35    36   ar
    20    36    37   ar
    21    37    38   ar
    22    38    39   ar
    23     4     5    1
    24     5     6   ar
    25     6     7   ar
    26     7     8   ar
    27     8    26    1
    28    26    27    3
    29     8     9   ar
    30     9    10   ar
    31    10    11    1
    32    11    12   am
    33    12    13    1
    34    12    14    2
    35    11    15    1
    36    15    16    1
    37    15     1    1
    38    39    29   ar
    39    10     5   ar
    40    39    34   ar
    41    24    25    1
    42    19    20    1
@<TRIPOS>MOLECULE
*****
 39 42 0 0 0
SMALL
GASTEIGER

@<TRIPOS>ATOM
      1 C         141.8490  138.5368  158.3177 C.3     1  UNL1        0.1678
      2 C         142.7355  138.6492  159.5226 C.2     1  UNL1        0.2492
      3 O         143.6285  137.4732  159.7856 O.2     1  UNL1       -0.2727
      4 N         142.8469  139.7823  160.4991 N.am    1  UNL1       -0.2518
      5 C         142.0995  141.0828  160.5122 C.ar    1  UNL1        0.0679
      6 C         142.5140  141.9416  161.6700 C.ar    1  UNL1        0.0169
      7 C         141.8850  143.2889  161.8675 C.ar    1  UNL1        0.0116
      8 C         140.8415  143.7775  160.9071 C.ar    1  UNL1        0.0698
      9 C         140.4270  142.9187  159.7492 C.ar    1  UNL1        0.0264
     10 C         141.0560  141.5714  159.5518 C.ar    1  UNL1        0.0682
     11 N         140.5022  140.8801  158.3412 N.am    1  UNL1       -0.2570
     12 C         139.4573  141.6399  157.5790 C.2     1  UNL1        0.2299
     13 C         139.0313  143.0011  158.0436 C.3     1  UNL1        0.0952
     14 O         138.8383  141.0385  156.3521 O.2     1  UNL1       -0.2745
     15 C         140.8551  139.5296  157.7919 C.3     1  UNL1        0.1066
     16 C         140.1165  139.1175  156.5532 C.3     1  UNL1        0.0242
     17 C         143.0805  137.1009  156.5368 C.2     1  UNL1        0.2371
     18 O         144.0643  138.2125  156.3209 O.2     1  UNL1       -0.2737
     19 N         141.9729  137.2631  157.5352 N.am    1  UNL1       -0.2959
     20 H         141.3272  136.5336  157.6769 H       1  UNL1        0.1499
     21 C         143.2043  135.8272  155.7543 C.3     1  UNL1        0.1316
     22 C         142.4829  135.6765  154.4478 C.3     1  UNL1        0.0270
     23 C         143.6399  133.9751  157.5235 C.3     1  UNL1        0.0862
     24 N         144.0495  134.7043  156.2783 N.3     1  UNL1       -0.2902
     25 H         144.1078  134.0081  155.5351 H       1  UNL1        0.1237
     26 C         140.2125  145.1249  161.1046 C.1     1  UNL1        0.1005
     27 N         139.5835  146.4722  161.3021 N.1     1  UNL1       -0.1908
     28 C         143.8367  139.5895  161.6096 C.3     1  UNL1        0.1245
     29 C         143.3632  139.1876  162.9751 C.ar    1  UNL1       -0.0059
     30 C         144.2646  139.3587  164.1618 C.ar    1  UNL1       -0.0242
     31 C         145.0052  139.6369  164.2592 C.3     1  UNL1        0.0308
     32 C         143.7911  138.9569  165.5272 C.ar    1  UNL1       -0.0045
     33 C         142.4164  138.3841  165.7059 C.ar    1  UNL1       -0.0003
     34 C         141.5150  138.2131  164.5192 C.ar    1  UNL1       -0.0003
     35 C         140.1402  137.6403  164.6979 C.ar    1  UNL1       -0.0000
     36 C         139.2390  137.4693  163.5111 C.ar    1  UNL1       -0.0000
     37 C         139.7124  137.8711  162.1456 C.ar    1  UNL1       -0.0000
     38 C         141.0872  138.4439  161.9670 C.ar    1  UNL1       -0.0003
     39 C         141.9884  138.6149  163.1537 C.ar    1  UNL1       -0.0027
@<TRIPOS>BOND
     1    23    24    1
     2    24    21    1
     3    21    22    1
     4    21    17    1
     5    17    18    2
     6    17    19   am
     7     1    19    1
     8     1     2    1
     9     2     3    2
    10     2     4   am
    11     4    28    1
    12    28    29    1
    13    29    30   ar
    14    30    31    1
    15    30    32   ar
    16    32    33   ar
    17    33    34   ar
    18    34    35   ar
    19    35    36   ar
    20    36    37   ar
    21    37    38   ar
    22    38    39   ar
    23     4     5    1
    24     5     6   ar
    25     6     7   ar
    26     7     8   ar
    27     8    26    1
    28    26    27    3
    29     8     9   ar
    30     9    10   ar
    31    10    11    1
    32    11    12   am
    33    12    13    1
    34    12    14    2
    35    11    15    1
    36    15    16    1
    37    15     1    1
    38    39    29   ar
    39    10     5   ar
    40    39    34   ar
    41    24    25    1
    42    19    20    1
@<TRIPOS>MOLECULE
*****
 39 42 0 0 0
SMALL
GASTEIGER

@<TRIPOS>ATOM
      1 C         137.6722  141.5361  156.9652 C.3     1  UNL1        0.1678
      2 C         137.9022  140.8210  158.2636 C.2     1  UNL1        0.2492
      3 O         136.6911  140.1865  158.8806 O.2     1  UNL1       -0.2727
      4 N         139.1831  140.6566  159.0265 N.am    1  UNL1       -0.2518
      5 C         140.5505  141.1666  158.6796 C.ar    1  UNL1        0.0679
      6 C         141.5601  140.7785  159.7188 C.ar    1  UNL1        0.0169
      7 C         142.9938  141.1908  159.5624 C.ar    1  UNL1        0.0116
      8 C         143.4178  141.9912  158.3668 C.ar    1  UNL1        0.0698
      9 C         142.4082  142.3793  157.3276 C.ar    1  UNL1        0.0264
     10 C         140.9745  141.9669  157.4840 C.ar    1  UNL1        0.0682
     11 N         140.1360  142.4550  156.3400 N.am    1  UNL1       -0.2570
     12 C         140.8633  143.2384  155.2878 C.2     1  UNL1        0.2299
     13 C         142.3364  143.4878  155.4223 C.3     1  UNL1        0.0952
     14 O         140.1177  143.7726  154.1008 O.2     1  UNL1       -0.2745
     15 C         138.6663  142.2633  156.1091 C.3     1  UNL1        0.1066
     16 C         138.1183  142.8803  154.8565 C.3     1  UNL1        0.0242
     17 C         135.7823  140.3826  155.6059 C.2     1  UNL1        0.2371
     18 O         136.7138  139.2570  155.2659 O.2     1  UNL1       -0.2737
     19 N         136.2615  141.5220  156.4555 N.am    1  UNL1       -0.2959
     20 H         135.6502  142.2608  156.6786 H       1  UNL1        0.1499
     21 C         134.3717  140.3685  155.0962 C.3     1  UNL1        0.1316
     22 C         133.9785  141.2564  153.9528 C.3     1  UNL1        0.0270
     23 C         132.5591  139.9445  156.9086 C.3     1  UNL1        0.0862
     24 N         133.3542  139.4668  155.7298 N.3     1  UNL1       -0.2902
     25 H         132.6831  139.2224  155.0015 H       1  UNL1        0.1237
     26 C         144.8516  142.4035  158.2104 C.1     1  UNL1        0.1005
     27 N         146.2853  142.8158  158.0540 N.1     1  UNL1       -0.1908
     28 C         139.0836  139.8794  160.3056 C.3     1  UNL1        0.1245
     29 C         138.6832  140.5717  161.5747 C.ar    1  UNL1       -0.0059
     30 C         138.3152  142.0256  161.5519 C.ar    1  UNL1       -0.0242
     31 C         138.2749  142.5778  160.9783 C.3     1  UNL1        0.0308
     32 C         137.9148  142.7179  162.8209 C.ar    1  UNL1       -0.0045
     33 C         137.8824  141.9562  164.1127 C.ar    1  UNL1       -0.0003
     34 C         138.2504  140.5022  164.1355 C.ar    1  UNL1       -0.0003
     35 C         138.2179  139.7405  165.4273 C.ar    1  UNL1       -0.0000
     36 C         138.5859  138.2865  165.4501 C.ar    1  UNL1       -0.0000
     37 C         138.9864  137.5942  164.1810 C.ar    1  UNL1       -0.0000
     38 C         139.0188  138.3560  162.8893 C.ar    1  UNL1       -0.0003
     39 C         138.6508  139.8099  162.8665 C.ar    1  UNL1       -0.0027
@<TRIPOS>BOND
     1    23    24    1
     2    24    21    1
     3    21    22    1
     4    21    17    1
     5    17    18    2
     6    17    19   am
     7     1    19    1
     8     1     2    1
     9     2     3    2
    10     2     4   am
    11     4    28    1
    12    28    29    1
    13    29    30   ar
    14    30    31    1
    15    30    32   ar
    16    32    33   ar
    17    33    34   ar
    18    34    35   ar
    19    35    36   ar
    20    36    37   ar
    21    37    38   ar
    22    38    39   ar
    23     4     5    1
    24     5     6   ar
    25     6     7   ar
    26     7     8   ar
    27     8    26    1
    28    26    27    3
    29     8     9   ar
    30     9    10   ar
    31    10    11    1
    32    11    12   am
    33    12    13    1
    34    12    14    2
    35    11    15    1
    36    15    16    1
    37    15     1    1
    38    39    29   ar
    39    10     5   ar
    40    39    34   ar
    41    24    25    1
    42    19    20    1
@<TRIPOS>MOLECULE
*****
 39 42 0 0 0
SMALL
GASTEIGER

@<TRIPOS>ATOM
      1 C         141.7227  144.6301  159.9983 C.3     1  UNL1        0.1678
      2 C         142.8046  143.6771  159.5844 C.2     1  UNL1        0.2492
      3 O         143.3611  143.8827  158.2068 O.2     1  UNL1       -0.2727
      4 N         143.4035  142.5457  160.3662 N.am    1  UNL1       -0.2518
      5 C         143.0686  142.0878  161.7547 C.ar    1  UNL1        0.0679
      6 C         143.9080  140.9132  162.1619 C.ar    1  UNL1        0.0169
      7 C         143.7307  140.2992  163.5189 C.ar    1  UNL1        0.0116
      8 C         142.7140  140.8597  164.4688 C.ar    1  UNL1        0.0698
      9 C         141.8746  142.0342  164.0616 C.ar    1  UNL1        0.0264
     10 C         142.0519  142.6483  162.7046 C.ar    1  UNL1        0.0682
     11 N         141.1191  143.8051  162.5003 N.am    1  UNL1       -0.2570
     12 C         140.2129  144.1217  163.6530 C.2     1  UNL1        0.2299
     13 C         140.2785  143.3002  164.9064 C.3     1  UNL1        0.0952
     14 O         139.2411  145.2600  163.5524 O.2     1  UNL1       -0.2745
     15 C         140.9725  144.6871  161.2960 C.3     1  UNL1        0.1066
     16 C         139.9393  145.7691  161.4035 C.3     1  UNL1        0.0242
     17 C         140.3830  145.3125  157.8795 C.2     1  UNL1        0.2371
     18 O         139.8077  143.9295  157.7978 O.2     1  UNL1       -0.2737
     19 N         141.3404  145.6628  158.9797 N.am    1  UNL1       -0.2959
     20 H         141.7179  146.5704  159.0333 H       1  UNL1        0.1499
     21 C         140.0007  146.3451  156.8609 C.3     1  UNL1        0.1316
     22 C         140.4404  146.1910  155.4350 C.3     1  UNL1        0.0270
     23 C         138.7463  148.5336  156.2386 C.3     1  UNL1        0.0862
     24 N         139.1786  147.5319  157.2680 N.3     1  UNL1       -0.2902
     25 H         138.3291  147.1676  157.6994 H       1  UNL1        0.1237
     26 C         142.5368  140.2457  165.8258 C.1     1  UNL1        0.1005
     27 N         142.3596  139.6316  167.1828 N.1     1  UNL1       -0.1908
     28 C         144.4798  141.7694  159.6668 C.3     1  UNL1        0.1245
     29 C         144.1413  140.9254  158.4738 C.ar    1  UNL1       -0.0059
     30 C         143.0145  139.9382  158.5491 C.ar    1  UNL1       -0.0242
     31 C         142.4993  139.7283  159.1199 C.3     1  UNL1        0.0308
     32 C         142.6760  139.0942  157.3561 C.ar    1  UNL1       -0.0045
     33 C         143.4642  139.2375  156.0880 C.ar    1  UNL1       -0.0003
     34 C         144.5911  140.2247  156.0128 C.ar    1  UNL1       -0.0003
     35 C         145.3793  140.3680  154.7447 C.ar    1  UNL1       -0.0000
     36 C         146.5061  141.3553  154.6696 C.ar    1  UNL1       -0.0000
     37 C         146.8447  142.1993  155.8625 C.ar    1  UNL1       -0.0000
     38 C         146.0564  142.0560  157.1306 C.ar    1  UNL1       -0.0003
     39 C         144.9296  141.0688  157.2057 C.ar    1  UNL1       -0.0027
@<TRIPOS>BOND
     1    23    24    1
     2    24    21    1
     3    21    22    1
     4    21    17    1
     5    17    18    2
     6    17    19   am
     7     1    19    1
     8     1     2    1
     9     2     3    2
    10     2     4   am
    11     4    28    1
    12    28    29    1
    13    29    30   ar
    14    30    31    1
    15    30    32   ar
    16    32    33   ar
    17    33    34   ar
    18    34    35   ar
    19    35    36   ar
    20    36    37   ar
    21    37    38   ar
    22    38    39   ar
    23     4     5    1
    24     5     6   ar
    25     6     7   ar
    26     7     8   ar
    27     8    26    1
    28    26    27    3
    29     8     9   ar
    30     9    10   ar
    31    10    11    1
    32    11    12   am
    33    12    13    1
    34    12    14    2
    35    11    15    1
    36    15    16    1
    37    15     1    1
    38    39    29   ar
    39    10     5   ar
    40    39    34   ar
    41    24    25    1
    42    19    20    1
@<TRIPOS>MOLECULE
*****
 39 42 0 0 0
SMALL
GASTEIGER

@<TRIPOS>ATOM
      1 C         142.4814  140.4035  160.0446 C.3     1  UNL1        0.1678
      2 C         141.1167  140.1000  160.5881 C.2     1  UNL1        0.2492
      3 O         141.0778  139.5698  161.9907 O.2     1  UNL1       -0.2727
      4 N         139.7857  140.2566  159.9144 N.am    1  UNL1       -0.2518
      5 C         139.4906  140.7554  158.5308 C.ar    1  UNL1        0.0679
      6 C         138.0171  140.7538  158.2504 C.ar    1  UNL1        0.0169
      7 C         137.5067  141.2175  156.9183 C.ar    1  UNL1        0.0116
      8 C         138.4699  141.6829  155.8667 C.ar    1  UNL1        0.0698
      9 C         139.9434  141.6845  156.1472 C.ar    1  UNL1        0.0264
     10 C         140.4537  141.2207  157.4792 C.ar    1  UNL1        0.0682
     11 N         141.9498  141.3022  157.5515 N.am    1  UNL1       -0.2570
     12 C         142.6339  141.8152  156.3191 C.2     1  UNL1        0.2299
     13 C         141.8233  142.2074  155.1194 C.3     1  UNL1        0.0952
     14 O         144.1287  141.9361  156.2863 O.2     1  UNL1       -0.2745
     15 C         142.8523  140.9385  158.6932 C.3     1  UNL1        0.1066
     16 C         144.3194  141.1359  158.4515 C.3     1  UNL1        0.0242
     17 C         143.8698  141.0439  162.1451 C.2     1  UNL1        0.2371
     18 O         142.9673  142.2181  162.3836 O.2     1  UNL1       -0.2737
     19 N         143.6269  140.1366  160.9756 N.am    1  UNL1       -0.2959
     20 H         144.2192  139.3660  160.8190 H       1  UNL1        0.1499
     21 C         145.0152  140.7771  163.0761 C.3     1  UNL1        0.1316
     22 C         146.0147  141.8578  163.3645 C.3     1  UNL1        0.0270
     23 C         144.3233  139.0722  164.9104 C.3     1  UNL1        0.0862
     24 N         145.1612  139.4296  163.7186 N.3     1  UNL1       -0.2902
     25 H         144.9593  138.7364  162.9982 H       1  UNL1        0.1237
     26 C         137.9594  142.1466  154.5346 C.1     1  UNL1        0.1005
     27 N         137.4490  142.6103  153.2026 N.1     1  UNL1       -0.1908
     28 C         138.5918  139.8623  160.7324 C.3     1  UNL1        0.1245
     29 C         138.3116  140.5554  162.0329 C.ar    1  UNL1       -0.0059
     30 C         137.9969  142.0220  162.0485 C.ar    1  UNL1       -0.0242
     31 C         137.9350  142.5812  161.4837 C.3     1  UNL1        0.0308
     32 C         137.7167  142.7151  163.3489 C.ar    1  UNL1       -0.0045
     33 C         137.7511  141.9417  164.6337 C.ar    1  UNL1       -0.0003
     34 C         138.0657  140.4751  164.6180 C.ar    1  UNL1       -0.0003
     35 C         138.1002  139.7017  165.9028 C.ar    1  UNL1       -0.0000
     36 C         138.4148  138.2352  165.8871 C.ar    1  UNL1       -0.0000
     37 C         138.6950  137.5420  164.5867 C.ar    1  UNL1       -0.0000
     38 C         138.6606  138.3155  163.3020 C.ar    1  UNL1       -0.0003
     39 C         138.3460  139.7819  163.3176 C.ar    1  UNL1       -0.0027
@<TRIPOS>BOND
     1    23    24    1
     2    24    21    1
     3    21    22    1
     4    21    17    1
     5    17    18    2
     6    17    19   am
     7     1    19    1
     8     1     2    1
     9     2     3    2
    10     2     4   am
    11     4    28    1
    12    28    29    1
    13    29    30   ar
    14    30    31    1
    15    30    32   ar
    16    32    33   ar
    17    33    34   ar
    18    34    35   ar
    19    35    36   ar
    20    36    37   ar
    21    37    38   ar
    22    38    39   ar
    23     4     5    1
    24     5     6   ar
    25     6     7   ar
    26     7     8   ar
    27     8    26    1
    28    26    27    3
    29     8     9   ar
    30     9    10   ar
    31    10    11    1
    32    11    12   am
    33    12    13    1
    34    12    14    2
    35    11    15    1
    36    15    16    1
    37    15     1    1
    38    39    29   ar
    39    10     5   ar
    40    39    34   ar
    41    24    25    1
    42    19    20    1
@<TRIPOS>MOLECULE
*****
 39 42 0 0 0
SMALL
GASTEIGER

@<TRIPOS>ATOM
      1 C         141.9093  137.6787  157.0999 C.3     1  UNL1        0.1678
      2 C         142.4057  138.0017  158.4781 C.2     1  UNL1        0.2492
      3 O         143.0015  136.8555  159.2405 O.2     1  UNL1       -0.2727
      4 N         142.3850  139.3193  159.1946 N.am    1  UNL1       -0.2518
      5 C         141.8629  140.6394  158.7101 C.ar    1  UNL1        0.0679
      6 C         142.0352  141.7105  159.7459 C.ar    1  UNL1        0.0169
      7 C         141.5770  143.1101  159.4609 C.ar    1  UNL1        0.0116
      8 C         140.9465  143.4385  158.1400 C.ar    1  UNL1        0.0698
      9 C         140.7743  142.3674  157.1042 C.ar    1  UNL1        0.0264
     10 C         141.2325  140.9679  157.3892 C.ar    1  UNL1        0.0682
     11 N         140.9685  140.0574  156.2267 N.am    1  UNL1       -0.2570
     12 C         140.3171  140.6950  155.0355 C.2     1  UNL1        0.2299
     13 C         139.9735  142.1550  155.0603 C.3     1  UNL1        0.0952
     14 O         140.0093  139.8728  153.8192 O.2     1  UNL1       -0.2745
     15 C         141.2697  138.5936  156.0979 C.3     1  UNL1        0.1066
     16 C         140.8797  137.9610  154.7950 C.3     1  UNL1        0.0242
     17 C         143.3391  135.8161  155.9880 C.2     1  UNL1        0.2371
     18 O         144.4387  136.8065  155.7430 O.2     1  UNL1       -0.2737
     19 N         142.0744  136.2523  156.6664 N.am    1  UNL1       -0.2959
     20 H         141.3527  135.6023  156.8272 H       1  UNL1        0.1499
     21 C         143.5041  134.3897  155.5545 C.3     1  UNL1        0.1316
     22 C         142.7543  133.8770  154.3607 C.3     1  UNL1        0.0270
     23 C         144.3158  133.3839  157.8083 C.3     1  UNL1        0.0862
     24 N         144.4190  133.4759  156.3146 N.3     1  UNL1       -0.2902
     25 H         144.2652  132.5356  155.9504 H       1  UNL1        0.1237
     26 C         140.4884  144.8382  157.8551 C.1     1  UNL1        0.1005
     27 N         140.0302  146.2377  157.5701 N.1     1  UNL1       -0.1908
     28 C         142.9629  139.3165  160.5788 C.3     1  UNL1        0.1245
     29 C         142.1401  138.8286  161.7342 C.ar    1  UNL1       -0.0059
     30 C         140.7186  138.4026  161.5155 C.ar    1  UNL1       -0.0242
     31 C         140.2432  138.3667  160.8766 C.3     1  UNL1        0.0308
     32 C         139.8956  137.9146  162.6708 C.ar    1  UNL1       -0.0045
     33 C         140.4943  137.8526  164.0448 C.ar    1  UNL1       -0.0003
     34 C         141.9158  138.2786  164.2635 C.ar    1  UNL1       -0.0003
     35 C         142.5145  138.2166  165.6374 C.ar    1  UNL1       -0.0000
     36 C         143.9360  138.6426  165.8560 C.ar    1  UNL1       -0.0000
     37 C         144.7589  139.1306  164.7007 C.ar    1  UNL1       -0.0000
     38 C         144.1602  139.1926  163.3268 C.ar    1  UNL1       -0.0003
     39 C         142.7388  138.7666  163.1082 C.ar    1  UNL1       -0.0027
@<TRIPOS>BOND
     1    23    24    1
     2    24    21    1
     3    21    22    1
     4    21    17    1
     5    17    18    2
     6    17    19   am
     7     1    19    1
     8     1     2    1
     9     2     3    2
    10     2     4   am
    11     4    28    1
    12    28    29    1
    13    29    30   ar
    14    30    31    1
    15    30    32   ar
    16    32    33   ar
    17    33    34   ar
    18    34    35   ar
    19    35    36   ar
    20    36    37   ar
    21    37    38   ar
    22    38    39   ar
    23     4     5    1
    24     5     6   ar
    25     6     7   ar
    26     7     8   ar
    27     8    26    1
    28    26    27    3
    29     8     9   ar
    30     9    10   ar
    31    10    11    1
    32    11    12   am
    33    12    13    1
    34    12    14    2
    35    11    15    1
    36    15    16    1
    37    15     1    1
    38    39    29   ar
    39    10     5   ar
    40    39    34   ar
    41    24    25    1
    42    19    20    1
