@<TRIPOS>MOLECULE
*****
 35 38 0 0 0
SMALL
GASTEIGER

@<TRIPOS>ATOM
      1 C         141.3454  145.0216  162.1215 C.3     1  UNL1        0.0401
      2 C         142.2761  144.6249  163.2290 C.3     1  UNL1        0.0595
      3 C         143.7337  144.9682  163.1428 C.3     1  UNL1        0.0174
      4 C         140.6951  142.4053  166.8100 C.3     1  UNL1        0.0905
      5 C         139.7748  143.2623  165.9925 C.3     1  UNL1        0.0400
      6 C         140.3018  144.0022  164.7988 C.3     1  UNL1        0.0740
      7 N         141.7491  143.8850  164.4227 N.3     1  UNL1       -0.2738
      8 C         142.6695  143.0280  165.2403 C.3     1  UNL1        0.0740
      9 C         142.1425  142.2882  166.4339 C.3     1  UNL1        0.0400
     10 C         140.6700  143.4962  169.8856 C.3     1  UNL1        0.0738
     11 C         140.1566  142.1668  169.4174 C.ar    1  UNL1        0.1433
     12 N         139.5415  141.1055  170.2807 N.ar    1  UNL1       -0.1337
     13 N         139.1728  139.9481  169.4005 N.ar    1  UNL1       -0.1337
     14 C         139.5601  140.2942  167.9933 C.ar    1  UNL1        0.1425
     15 N         140.1681  141.6654  168.0037 N.ar    1  UNL1       -0.3039
     16 C         139.3724  139.4221  166.7874 C.3     1  UNL1        0.0588
     17 C         137.9972  138.9676  166.3973 C.3     1  UNL1        0.0080
     18 C         140.5598  139.0046  165.9716 C.3     1  UNL1        0.0080
     19 C         141.0565  144.0625  161.0050 C.3     1  UNL1        0.0954
     20 C         141.2160  144.5011  159.5794 C.ar    1  UNL1       -0.0045
     21 C         140.2830  145.5230  159.0003 C.ar    1  UNL1       -0.0027
     22 C         140.4425  145.9615  157.5747 C.ar    1  UNL1       -0.0003
     23 C         141.5349  145.3782  156.7283 C.ar    1  UNL1       -0.0000
     24 C         142.4679  144.3564  157.3075 C.ar    1  UNL1       -0.0003
     25 C         142.3084  143.9178  158.7330 C.ar    1  UNL1       -0.0027
     26 N         140.6082  142.6648  161.3140 N.am    1  UNL1       -0.3022
     27 C         139.1473  142.3635  161.4723 C.2     1  UNL1        0.2225
     28 O         138.1348  143.4599  161.3217 O.2     1  UNL1       -0.2751
     29 H         141.2727  141.9452  161.4129 H       1  UNL1        0.1497
     30 C         138.6990  140.9658  161.7813 C.3     1  UNL1        0.0873
     31 C         139.0655  139.9372  162.8098 C.3     1  UNL1        0.0758
     32 C         138.0650  138.9892  162.2183 C.3     1  UNL1        0.2649
     33 F         137.0644  138.0411  161.6267 F       1  UNL1       -0.2043
     34 F         138.4315  137.9607  163.2467 F       1  UNL1       -0.2043
     35 C         137.6985  140.0177  161.1898 C.3     1  UNL1        0.0758
@<TRIPOS>BOND
     1    10    11    1
     2    11    12   ar
     3    12    13   ar
     4    13    14   ar
     5    14    16    1
     6    16    17    1
     7    16    18    1
     8    14    15   ar
     9    15     4    1
    10     4     5    1
    11     5     6    1
    12     6     7    1
    13     7     2    1
    14     2     3    1
    15     2     1    1
    16    19     1    1
    17    19    26    1
    18    26    27   am
    19    27    28    2
    20    27    30    1
    21    30    31    1
    22    31    32    1
    23    32    33    1
    24    32    34    1
    25    32    35    1
    26    19    20    1
    27    20    21   ar
    28    21    22   ar
    29    22    23   ar
    30    23    24   ar
    31    24    25   ar
    32     7     8    1
    33     8     9    1
    34    15    11   ar
    35     9     4    1
    36    35    30    1
    37    25    20   ar
    38    26    29    1
@<TRIPOS>MOLECULE
*****
 35 38 0 0 0
SMALL
GASTEIGER

@<TRIPOS>ATOM
      1 C         141.4397  145.0444  162.1080 C.3     1  UNL1        0.0401
      2 C         142.3526  144.6425  163.2283 C.3     1  UNL1        0.0595
      3 C         143.7967  145.0473  163.2009 C.3     1  UNL1        0.0174
      4 C         140.7590  142.2224  166.6712 C.3     1  UNL1        0.0905
      5 C         139.8525  143.1602  165.9305 C.3     1  UNL1        0.0400
      6 C         140.3837  143.9669  164.7829 C.3     1  UNL1        0.0740
      7 N         141.8214  143.8358  164.3760 N.3     1  UNL1       -0.2738
      8 C         142.7280  142.8980  165.1166 C.3     1  UNL1        0.0740
      9 C         142.1968  142.0913  166.2642 C.3     1  UNL1        0.0400
     10 C         139.0858  139.4301  166.4412 C.3     1  UNL1        0.0738
     11 C         139.4588  140.1322  167.7131 C.ar    1  UNL1        0.1433
     12 N         139.1281  139.6741  169.1027 N.ar    1  UNL1       -0.1337
     13 N         139.6929  140.6745  170.0673 N.ar    1  UNL1       -0.1337
     14 C         140.3726  141.7508  169.2738 C.ar    1  UNL1        0.1425
     15 N         140.2279  141.4157  167.8189 N.ar    1  UNL1       -0.3039
     16 C         141.0738  142.9515  169.8365 C.3     1  UNL1        0.0588
     17 C         140.3527  144.2630  169.9362 C.3     1  UNL1        0.0080
     18 C         142.4963  142.8407  170.2994 C.3     1  UNL1        0.0080
     19 C         141.1280  144.0722  161.0090 C.3     1  UNL1        0.0954
     20 C         141.2551  144.4949  159.5754 C.ar    1  UNL1       -0.0045
     21 C         142.3177  143.8898  158.7065 C.ar    1  UNL1       -0.0027
     22 C         142.4448  144.3124  157.2729 C.ar    1  UNL1       -0.0003
     23 C         141.5093  145.3401  156.7082 C.ar    1  UNL1       -0.0000
     24 C         140.4468  145.9451  157.5771 C.ar    1  UNL1       -0.0003
     25 C         140.3197  145.5225  159.0107 C.ar    1  UNL1       -0.0027
     26 N         140.6892  142.6774  161.3437 N.am    1  UNL1       -0.3022
     27 C         139.2325  142.3213  161.3112 C.2     1  UNL1        0.2225
     28 O         138.2145  143.3600  160.9441 O.2     1  UNL1       -0.2751
     29 H         141.3573  141.9956  161.5846 H       1  UNL1        0.1497
     30 C         138.7937  140.9265  161.6458 C.3     1  UNL1        0.0873
     31 C         139.2788  139.8571  162.5791 C.3     1  UNL1        0.0758
     32 C         138.1733  138.9539  162.1190 C.3     1  UNL1        0.2649
     33 F         137.0676  138.0507  161.6588 F       1  UNL1       -0.2043
     34 F         138.6583  137.8845  163.0523 F       1  UNL1       -0.2043
     35 C         137.6881  140.0232  161.1857 C.3     1  UNL1        0.0758
@<TRIPOS>BOND
     1    10    11    1
     2    11    12   ar
     3    12    13   ar
     4    13    14   ar
     5    14    16    1
     6    16    17    1
     7    16    18    1
     8    14    15   ar
     9    15     4    1
    10     4     5    1
    11     5     6    1
    12     6     7    1
    13     7     2    1
    14     2     3    1
    15     2     1    1
    16    19     1    1
    17    19    26    1
    18    26    27   am
    19    27    28    2
    20    27    30    1
    21    30    31    1
    22    31    32    1
    23    32    33    1
    24    32    34    1
    25    32    35    1
    26    19    20    1
    27    20    21   ar
    28    21    22   ar
    29    22    23   ar
    30    23    24   ar
    31    24    25   ar
    32     7     8    1
    33     8     9    1
    34    15    11   ar
    35     9     4    1
    36    35    30    1
    37    25    20   ar
    38    26    29    1
@<TRIPOS>MOLECULE
*****
 35 38 0 0 0
SMALL
GASTEIGER

@<TRIPOS>ATOM
      1 C         144.4780  140.1473  162.2365 C.3     1  UNL1        0.0401
      2 C         144.7531  140.8162  163.5506 C.3     1  UNL1        0.0595
      3 C         145.9759  141.6687  163.7167 C.3     1  UNL1        0.0174
      4 C         141.9096  140.2651  166.9946 C.3     1  UNL1        0.0905
      5 C         142.3708  141.6412  166.6156 C.3     1  UNL1        0.0400
      6 C         143.3186  141.8248  165.4677 C.3     1  UNL1        0.0740
      7 N         143.8052  140.6324  164.6986 N.3     1  UNL1       -0.2738
      8 C         143.3440  139.2564  165.0776 C.3     1  UNL1        0.0740
      9 C         142.3962  139.0727  166.2256 C.3     1  UNL1        0.0400
     10 C         142.6785  140.4279  170.1619 C.3     1  UNL1        0.0738
     11 C         141.3152  140.1562  169.5984 C.ar    1  UNL1        0.1433
     12 N         140.0659  139.9116  170.3919 N.ar    1  UNL1       -0.1337
     13 N         138.9404  139.6857  169.4264 N.ar    1  UNL1       -0.1337
     14 C         139.4940  139.7906  168.0363 C.ar    1  UNL1        0.1425
     15 N         140.9618  140.0814  168.1426 N.ar    1  UNL1       -0.3039
     16 C         138.7165  139.6324  166.7633 C.3     1  UNL1        0.0588
     17 C         137.8735  138.4109  166.5462 C.3     1  UNL1        0.0080
     18 C         138.7819  140.6959  165.7075 C.3     1  UNL1        0.0080
     19 C         143.3431  140.6202  161.3772 C.3     1  UNL1        0.0954
     20 C         143.1085  139.9954  160.0339 C.ar    1  UNL1       -0.0045
     21 C         142.8836  138.5164  159.9237 C.ar    1  UNL1       -0.0027
     22 C         142.6489  137.8915  158.5804 C.ar    1  UNL1       -0.0003
     23 C         142.6392  138.7457  157.3473 C.ar    1  UNL1       -0.0000
     24 C         142.8642  140.2246  157.4575 C.ar    1  UNL1       -0.0003
     25 C         143.0988  140.8494  158.8009 C.ar    1  UNL1       -0.0027
     26 N         142.4428  141.7181  161.8613 N.am    1  UNL1       -0.3022
     27 C         141.1183  141.3836  162.4807 C.2     1  UNL1        0.2225
     28 O         140.6940  139.9513  162.6160 O.2     1  UNL1       -0.2751
     29 H         142.7213  142.6582  161.7724 H       1  UNL1        0.1497
     30 C         140.2181  142.4815  162.9647 C.3     1  UNL1        0.0873
     31 C         140.3613  143.6246  163.9252 C.3     1  UNL1        0.0758
     32 C         138.9450  144.0341  163.6492 C.3     1  UNL1        0.2649
     33 F         137.5286  144.4435  163.3730 F       1  UNL1       -0.2043
     34 F         139.0881  145.1772  164.6097 F       1  UNL1       -0.2043
     35 C         138.8017  142.8910  162.6886 C.3     1  UNL1        0.0758
@<TRIPOS>BOND
     1    10    11    1
     2    11    12   ar
     3    12    13   ar
     4    13    14   ar
     5    14    16    1
     6    16    17    1
     7    16    18    1
     8    14    15   ar
     9    15     4    1
    10     4     5    1
    11     5     6    1
    12     6     7    1
    13     7     2    1
    14     2     3    1
    15     2     1    1
    16    19     1    1
    17    19    26    1
    18    26    27   am
    19    27    28    2
    20    27    30    1
    21    30    31    1
    22    31    32    1
    23    32    33    1
    24    32    34    1
    25    32    35    1
    26    19    20    1
    27    20    21   ar
    28    21    22   ar
    29    22    23   ar
    30    23    24   ar
    31    24    25   ar
    32     7     8    1
    33     8     9    1
    34    15    11   ar
    35     9     4    1
    36    35    30    1
    37    25    20   ar
    38    26    29    1
@<TRIPOS>MOLECULE
*****
 35 38 0 0 0
SMALL
GASTEIGER

@<TRIPOS>ATOM
      1 C         141.4317  142.8593  162.5457 C.3     1  UNL1        0.0401
      2 C         142.4228  143.2413  163.6048 C.3     1  UNL1        0.0595
      3 C         143.7010  143.9273  163.2235 C.3     1  UNL1        0.0174
      4 C         141.5614  142.3293  167.9264 C.3     1  UNL1        0.0905
      5 C         142.9714  142.2834  167.4169 C.3     1  UNL1        0.0400
      6 C         143.2585  142.5874  165.9764 C.3     1  UNL1        0.0740
      7 N         142.1356  142.9373  165.0454 N.3     1  UNL1       -0.2738
      8 C         140.7256  142.9832  165.5550 C.3     1  UNL1        0.0740
      9 C         140.4385  142.6792  166.9955 C.3     1  UNL1        0.0400
     10 C         140.3114  144.4048  170.1127 C.3     1  UNL1        0.0738
     11 C         140.6996  142.9793  170.3719 C.ar    1  UNL1        0.1433
     12 N         140.5815  142.2576  171.6815 N.ar    1  UNL1       -0.1337
     13 N         141.0831  140.8574  171.4860 N.ar    1  UNL1       -0.1337
     14 C         141.5112  140.7140  170.0556 C.ar    1  UNL1        0.1425
     15 N         141.2742  142.0254  169.3670 N.ar    1  UNL1       -0.3039
     16 C         142.0769  139.4763  169.4245 C.3     1  UNL1        0.0588
     17 C         142.8087  138.4729  170.2657 C.3     1  UNL1        0.0080
     18 C         141.9109  139.2421  167.9523 C.3     1  UNL1        0.0080
     19 C         141.1161  141.4136  162.3003 C.3     1  UNL1        0.0954
     20 C         141.8135  140.6700  161.2000 C.ar    1  UNL1       -0.0045
     21 C         143.0029  141.2799  160.5192 C.ar    1  UNL1       -0.0027
     22 C         143.7003  140.5363  159.4189 C.ar    1  UNL1       -0.0003
     23 C         143.2085  139.1827  158.9995 C.ar    1  UNL1       -0.0000
     24 C         142.0192  138.5728  159.6803 C.ar    1  UNL1       -0.0003
     25 C         141.3217  139.3164  160.7806 C.ar    1  UNL1       -0.0027
     26 N         140.1030  140.7114  163.1551 N.am    1  UNL1       -0.3022
     27 C         140.5544  139.7946  164.2531 C.2     1  UNL1        0.2225
     28 O         142.0189  139.5799  164.4964 O.2     1  UNL1       -0.2751
     29 H         139.1418  140.8523  162.9955 H       1  UNL1        0.1497
     30 C         139.5413  139.0925  165.1079 C.3     1  UNL1        0.0873
     31 C         138.5916  139.5139  166.1898 C.3     1  UNL1        0.0758
     32 C         138.1086  138.0996  166.3168 C.3     1  UNL1        0.2649
     33 F         137.6255  136.6852  166.4437 F       1  UNL1       -0.2043
     34 F         137.1589  138.5210  167.3986 F       1  UNL1       -0.2043
     35 C         139.0582  137.6781  165.2349 C.3     1  UNL1        0.0758
@<TRIPOS>BOND
     1    10    11    1
     2    11    12   ar
     3    12    13   ar
     4    13    14   ar
     5    14    16    1
     6    16    17    1
     7    16    18    1
     8    14    15   ar
     9    15     4    1
    10     4     5    1
    11     5     6    1
    12     6     7    1
    13     7     2    1
    14     2     3    1
    15     2     1    1
    16    19     1    1
    17    19    26    1
    18    26    27   am
    19    27    28    2
    20    27    30    1
    21    30    31    1
    22    31    32    1
    23    32    33    1
    24    32    34    1
    25    32    35    1
    26    19    20    1
    27    20    21   ar
    28    21    22   ar
    29    22    23   ar
    30    23    24   ar
    31    24    25   ar
    32     7     8    1
    33     8     9    1
    34    15    11   ar
    35     9     4    1
    36    35    30    1
    37    25    20   ar
    38    26    29    1
@<TRIPOS>MOLECULE
*****
 35 38 0 0 0
SMALL
GASTEIGER

@<TRIPOS>ATOM
      1 C         141.8472  144.1092  161.9336 C.3     1  UNL1        0.0401
      2 C         142.5128  144.2440  163.2710 C.3     1  UNL1        0.0595
      3 C         143.7547  145.0736  163.4105 C.3     1  UNL1        0.0174
      4 C         140.7838  142.1595  166.8648 C.3     1  UNL1        0.0905
      5 C         139.9329  143.0965  166.0599 C.3     1  UNL1        0.0400
      6 C         140.5093  143.7913  164.8620 C.3     1  UNL1        0.0740
      7 N         141.9365  143.5491  164.4690 N.3     1  UNL1       -0.2738
      8 C         142.7874  142.6121  165.2740 C.3     1  UNL1        0.0740
      9 C         142.2110  141.9173  166.4719 C.3     1  UNL1        0.0400
     10 C         139.0293  139.4081  166.8269 C.3     1  UNL1        0.0738
     11 C         139.4011  140.2000  168.0454 C.ar    1  UNL1        0.1433
     12 N         139.0316  139.8662  169.4603 N.ar    1  UNL1       -0.1337
     13 N         139.6098  140.9246  170.3523 N.ar    1  UNL1       -0.1337
     14 C         140.3365  141.9125  169.4886 C.ar    1  UNL1        0.1425
     15 N         140.2075  141.4646  168.0628 N.ar    1  UNL1       -0.3039
     16 C         141.0644  143.1338  169.9667 C.3     1  UNL1        0.0588
     17 C         142.5201  143.0498  170.3182 C.3     1  UNL1        0.0080
     18 C         140.3364  144.4392  170.0935 C.3     1  UNL1        0.0080
     19 C         141.8229  142.7802  161.2384 C.3     1  UNL1        0.0954
     20 C         142.4094  142.6414  159.8649 C.ar    1  UNL1       -0.0045
     21 C         141.5263  142.2905  158.7042 C.ar    1  UNL1       -0.0027
     22 C         142.1129  142.1517  157.3306 C.ar    1  UNL1       -0.0003
     23 C         143.5825  142.3639  157.1177 C.ar    1  UNL1       -0.0000
     24 C         144.4655  142.7148  158.2783 C.ar    1  UNL1       -0.0003
     25 C         143.8790  142.8536  159.6519 C.ar    1  UNL1       -0.0027
     26 N         141.2121  141.5899  161.9169 N.am    1  UNL1       -0.3022
     27 C         142.0908  140.4956  162.4463 C.2     1  UNL1        0.2225
     28 O         143.5803  140.5914  162.2972 O.2     1  UNL1       -0.2751
     29 H         140.2345  141.5270  162.0148 H       1  UNL1        0.1497
     30 C         141.4799  139.3054  163.1247 C.3     1  UNL1        0.0873
     31 C         140.0815  138.8026  163.3288 C.3     1  UNL1        0.0758
     32 C         140.6160  137.6222  164.0841 C.3     1  UNL1        0.2649
     33 F         141.1507  136.4417  164.8395 F       1  UNL1       -0.2043
     34 F         139.2177  137.1194  164.2882 F       1  UNL1       -0.2043
     35 C         142.0145  138.1249  163.8801 C.3     1  UNL1        0.0758
@<TRIPOS>BOND
     1    10    11    1
     2    11    12   ar
     3    12    13   ar
     4    13    14   ar
     5    14    16    1
     6    16    17    1
     7    16    18    1
     8    14    15   ar
     9    15     4    1
    10     4     5    1
    11     5     6    1
    12     6     7    1
    13     7     2    1
    14     2     3    1
    15     2     1    1
    16    19     1    1
    17    19    26    1
    18    26    27   am
    19    27    28    2
    20    27    30    1
    21    30    31    1
    22    31    32    1
    23    32    33    1
    24    32    34    1
    25    32    35    1
    26    19    20    1
    27    20    21   ar
    28    21    22   ar
    29    22    23   ar
    30    23    24   ar
    31    24    25   ar
    32     7     8    1
    33     8     9    1
    34    15    11   ar
    35     9     4    1
    36    35    30    1
    37    25    20   ar
    38    26    29    1
@<TRIPOS>MOLECULE
*****
 35 38 0 0 0
SMALL
GASTEIGER

@<TRIPOS>ATOM
      1 C         144.4015  143.2478  162.8714 C.3     1  UNL1        0.0401
      2 C         144.7078  142.1105  163.8002 C.3     1  UNL1        0.0595
      3 C         146.0341  141.4143  163.7216 C.3     1  UNL1        0.0174
      4 C         141.6477  140.7872  166.8225 C.3     1  UNL1        0.0905
      5 C         142.1174  142.2116  166.8051 C.3     1  UNL1        0.0400
      6 C         143.1374  142.6527  165.7977 C.3     1  UNL1        0.0740
      7 N         143.6877  141.6693  164.8077 N.3     1  UNL1       -0.2738
      8 C         143.2180  140.2449  164.8251 C.3     1  UNL1        0.0740
      9 C         142.1980  139.8039  165.8325 C.3     1  UNL1        0.0400
     10 C         141.9960  140.8670  170.0663 C.3     1  UNL1        0.0738
     11 C         140.7877  140.3828  169.3210 C.ar    1  UNL1        0.1433
     12 N         139.5274  139.8502  169.9358 N.ar    1  UNL1       -0.1337
     13 N         138.5883  139.4843  168.8247 N.ar    1  UNL1       -0.1337
     14 C         139.2683  139.7908  167.5233 C.ar    1  UNL1        0.1425
     15 N         140.6276  140.3461  167.8300 N.ar    1  UNL1       -0.3039
     16 C         138.6904  139.5792  166.1554 C.3     1  UNL1        0.0588
     17 C         138.4597  138.1875  165.6457 C.3     1  UNL1        0.0080
     18 C         138.3433  140.7593  165.2970 C.3     1  UNL1        0.0080
     19 C         143.2229  143.1648  161.9472 C.3     1  UNL1        0.0954
     20 C         143.4371  143.0571  160.4665 C.ar    1  UNL1       -0.0045
     21 C         142.3523  143.4770  159.5193 C.ar    1  UNL1       -0.0027
     22 C         142.5665  143.3693  158.0386 C.ar    1  UNL1       -0.0003
     23 C         143.8653  142.8416  157.5051 C.ar    1  UNL1       -0.0000
     24 C         144.9500  142.4216  158.4522 C.ar    1  UNL1       -0.0003
     25 C         144.7358  142.5294  159.9330 C.ar    1  UNL1       -0.0027
     26 N         141.8302  143.1896  162.5038 N.am    1  UNL1       -0.3022
     27 C         141.3610  144.3722  163.2983 C.2     1  UNL1        0.2225
     28 O         142.2844  145.5300  163.5363 O.2     1  UNL1       -0.2751
     29 H         141.2241  142.4297  162.3476 H       1  UNL1        0.1497
     30 C         139.9683  144.3969  163.8548 C.3     1  UNL1        0.0873
     31 C         138.6193  143.9695  163.3570 C.3     1  UNL1        0.0758
     32 C         137.9986  144.4319  164.6418 C.3     1  UNL1        0.2649
     33 F         137.3780  144.8943  165.9267 F       1  UNL1       -0.2043
     34 F         136.6498  144.0046  164.1441 F       1  UNL1       -0.2043
     35 C         139.3475  144.8593  165.1397 C.3     1  UNL1        0.0758
@<TRIPOS>BOND
     1    10    11    1
     2    11    12   ar
     3    12    13   ar
     4    13    14   ar
     5    14    16    1
     6    16    17    1
     7    16    18    1
     8    14    15   ar
     9    15     4    1
    10     4     5    1
    11     5     6    1
    12     6     7    1
    13     7     2    1
    14     2     3    1
    15     2     1    1
    16    19     1    1
    17    19    26    1
    18    26    27   am
    19    27    28    2
    20    27    30    1
    21    30    31    1
    22    31    32    1
    23    32    33    1
    24    32    34    1
    25    32    35    1
    26    19    20    1
    27    20    21   ar
    28    21    22   ar
    29    22    23   ar
    30    23    24   ar
    31    24    25   ar
    32     7     8    1
    33     8     9    1
    34    15    11   ar
    35     9     4    1
    36    35    30    1
    37    25    20   ar
    38    26    29    1
@<TRIPOS>MOLECULE
*****
 35 38 0 0 0
SMALL
GASTEIGER

@<TRIPOS>ATOM
      1 C         140.2603  140.1129  167.0634 C.3     1  UNL1        0.0401
      2 C         139.7349  139.5402  165.7804 C.3     1  UNL1        0.0595
      3 C         138.4325  138.7963  165.7689 C.3     1  UNL1        0.0174
      4 C         142.0665  140.0537  161.9660 C.3     1  UNL1        0.0905
      5 C         142.7557  139.5684  163.2067 C.3     1  UNL1        0.0400
      6 C         141.9785  139.3972  164.4781 C.3     1  UNL1        0.0740
      7 N         140.5121  139.7114  164.5089 N.3     1  UNL1       -0.2738
      8 C         139.8229  140.1967  163.2682 C.3     1  UNL1        0.0740
      9 C         140.6001  140.3679  161.9967 C.3     1  UNL1        0.0400
     10 C         142.9886  137.6633  159.9447 C.3     1  UNL1        0.0738
     11 C         143.2675  139.1262  159.7654 C.ar    1  UNL1        0.1433
     12 N         144.0192  139.7471  158.6255 N.ar    1  UNL1       -0.1337
     13 N         144.0601  141.2297  158.8501 N.ar    1  UNL1       -0.1337
     14 C         143.3335  141.5250  160.1287 C.ar    1  UNL1        0.1425
     15 N         142.8437  140.2249  160.6944 N.ar    1  UNL1       -0.3039
     16 C         143.1322  142.8820  160.7352 C.3     1  UNL1        0.0588
     17 C         142.0993  143.8108  160.1691 C.3     1  UNL1        0.0080
     18 C         143.9637  143.3103  161.9079 C.3     1  UNL1        0.0080
     19 C         140.5552  141.5801  167.1644 C.3     1  UNL1        0.0954
     20 C         141.3794  142.1027  168.3036 C.ar    1  UNL1       -0.0045
     21 C         142.7873  141.6211  168.4935 C.ar    1  UNL1       -0.0027
     22 C         143.6115  142.1437  169.6326 C.ar    1  UNL1       -0.0003
     23 C         143.0278  143.1479  170.5819 C.ar    1  UNL1       -0.0000
     24 C         141.6200  143.6295  170.3919 C.ar    1  UNL1       -0.0003
     25 C         140.7958  143.1069  169.2528 C.ar    1  UNL1       -0.0027
     26 N         140.0260  142.5249  166.1263 N.am    1  UNL1       -0.3022
     27 C         140.9664  143.1767  165.1564 C.2     1  UNL1        0.2225
     28 O         142.4360  142.8839  165.2245 O.2     1  UNL1       -0.2751
     29 H         139.0615  142.7170  166.0816 H       1  UNL1        0.1497
     30 C         140.4372  144.1213  164.1184 C.3     1  UNL1        0.0873
     31 C         141.0270  145.2203  163.2850 C.3     1  UNL1        0.0758
     32 C         139.6887  145.4573  162.6504 C.3     1  UNL1        0.2649
     33 F         138.3504  145.6943  162.0158 F       1  UNL1       -0.2043
     34 F         140.2785  146.5562  161.8170 F       1  UNL1       -0.2043
     35 C         139.0989  144.3584  163.4838 C.3     1  UNL1        0.0758
@<TRIPOS>BOND
     1    10    11    1
     2    11    12   ar
     3    12    13   ar
     4    13    14   ar
     5    14    16    1
     6    16    17    1
     7    16    18    1
     8    14    15   ar
     9    15     4    1
    10     4     5    1
    11     5     6    1
    12     6     7    1
    13     7     2    1
    14     2     3    1
    15     2     1    1
    16    19     1    1
    17    19    26    1
    18    26    27   am
    19    27    28    2
    20    27    30    1
    21    30    31    1
    22    31    32    1
    23    32    33    1
    24    32    34    1
    25    32    35    1
    26    19    20    1
    27    20    21   ar
    28    21    22   ar
    29    22    23   ar
    30    23    24   ar
    31    24    25   ar
    32     7     8    1
    33     8     9    1
    34    15    11   ar
    35     9     4    1
    36    35    30    1
    37    25    20   ar
    38    26    29    1
@<TRIPOS>MOLECULE
*****
 35 38 0 0 0
SMALL
GASTEIGER

@<TRIPOS>ATOM
      1 C         143.6941  143.2589  162.1324 C.3     1  UNL1        0.0401
      2 C         144.2215  142.2899  163.1486 C.3     1  UNL1        0.0595
      3 C         145.6236  141.7698  163.0321 C.3     1  UNL1        0.0174
      4 C         141.5973  140.9427  166.5470 C.3     1  UNL1        0.0905
      5 C         142.4297  139.9429  165.8003 C.3     1  UNL1        0.0400
      6 C         143.3044  140.3920  164.6675 C.3     1  UNL1        0.0740
      7 N         143.3467  141.8408  164.2815 N.3     1  UNL1       -0.2738
      8 C         142.5144  142.8406  165.0281 C.3     1  UNL1        0.0740
      9 C         141.6397  142.3915  166.1609 C.3     1  UNL1        0.0400
     10 C         142.2884  141.2067  169.7254 C.3     1  UNL1        0.0738
     11 C         141.0402  140.6150  169.1407 C.ar    1  UNL1        0.1433
     12 N         139.8906  140.0408  169.9144 N.ar    1  UNL1       -0.1337
     13 N         138.8623  139.5645  168.9315 N.ar    1  UNL1       -0.1337
     14 C         139.3765  139.8444  167.5505 C.ar    1  UNL1        0.1425
     15 N         140.7226  140.4937  167.6798 N.ar    1  UNL1       -0.3039
     16 C         138.6689  139.5302  166.2658 C.3     1  UNL1        0.0588
     17 C         138.3306  138.1095  165.9239 C.3     1  UNL1        0.0080
     18 C         138.2997  140.6368  165.3229 C.3     1  UNL1        0.0080
     19 C         142.6647  142.8146  161.1359 C.3     1  UNL1        0.0954
     20 C         142.3242  143.6917  159.9677 C.ar    1  UNL1       -0.0045
     21 C         142.9870  143.4650  158.6413 C.ar    1  UNL1       -0.0027
     22 C         142.6465  144.3421  157.4730 C.ar    1  UNL1       -0.0003
     23 C         141.6430  145.4458  157.6312 C.ar    1  UNL1       -0.0000
     24 C         140.9802  145.6725  158.9576 C.ar    1  UNL1       -0.0003
     25 C         141.3208  144.7954  160.1258 C.ar    1  UNL1       -0.0027
     26 N         141.9759  141.4932  161.3076 N.am    1  UNL1       -0.3022
     27 C         140.6427  141.4257  161.9916 C.2     1  UNL1        0.2225
     28 O         139.9982  142.6796  162.5039 O.2     1  UNL1       -0.2751
     29 H         142.3989  140.6702  160.9714 H       1  UNL1        0.1497
     30 C         139.9539  140.1043  162.1633 C.3     1  UNL1        0.0873
     31 C         138.6237  139.5411  161.7591 C.3     1  UNL1        0.0758
     32 C         138.9798  138.2356  162.4061 C.3     1  UNL1        0.2649
     33 F         139.3360  136.9301  163.0533 F       1  UNL1       -0.2043
     34 F         137.6497  137.6724  162.0020 F       1  UNL1       -0.2043
     35 C         140.3100  138.7988  162.8104 C.3     1  UNL1        0.0758
@<TRIPOS>BOND
     1    10    11    1
     2    11    12   ar
     3    12    13   ar
     4    13    14   ar
     5    14    16    1
     6    16    17    1
     7    16    18    1
     8    14    15   ar
     9    15     4    1
    10     4     5    1
    11     5     6    1
    12     6     7    1
    13     7     2    1
    14     2     3    1
    15     2     1    1
    16    19     1    1
    17    19    26    1
    18    26    27   am
    19    27    28    2
    20    27    30    1
    21    30    31    1
    22    31    32    1
    23    32    33    1
    24    32    34    1
    25    32    35    1
    26    19    20    1
    27    20    21   ar
    28    21    22   ar
    29    22    23   ar
    30    23    24   ar
    31    24    25   ar
    32     7     8    1
    33     8     9    1
    34    15    11   ar
    35     9     4    1
    36    35    30    1
    37    25    20   ar
    38    26    29    1
@<TRIPOS>MOLECULE
*****
 35 38 0 0 0
SMALL
GASTEIGER

@<TRIPOS>ATOM
      1 C         143.1478  143.4941  162.0743 C.3     1  UNL1        0.0401
      2 C         143.1121  144.1305  163.4322 C.3     1  UNL1        0.0595
      3 C         143.7881  145.4500  163.6600 C.3     1  UNL1        0.0174
      4 C         140.9771  142.0811  166.8220 C.3     1  UNL1        0.0905
      5 C         142.3940  141.7124  166.4960 C.3     1  UNL1        0.0400
      6 C         143.1057  142.3956  165.3661 C.3     1  UNL1        0.0740
      7 N         142.4004  143.4474  164.5622 N.3     1  UNL1       -0.2738
      8 C         140.9834  143.8160  164.8882 C.3     1  UNL1        0.0740
      9 C         140.2718  143.1329  166.0181 C.3     1  UNL1        0.0400
     10 C         139.1503  139.3869  166.5891 C.3     1  UNL1        0.0738
     11 C         139.4257  140.1596  167.8450 C.ar    1  UNL1        0.1433
     12 N         138.9097  139.8296  169.2142 N.ar    1  UNL1       -0.1337
     13 N         139.4305  140.8640  170.1676 N.ar    1  UNL1       -0.1337
     14 C         140.2683  141.8333  169.3875 C.ar    1  UNL1        0.1425
     15 N         140.2653  141.3979  167.9520 N.ar    1  UNL1       -0.3039
     16 C         140.9836  143.0281  169.9450 C.3     1  UNL1        0.0588
     17 C         140.2668  144.3396  170.0719 C.3     1  UNL1        0.0080
     18 C         142.4157  142.9114  170.3756 C.3     1  UNL1        0.0080
     19 C         141.9136  142.8513  161.5146 C.3     1  UNL1        0.0954
     20 C         141.2960  143.3834  160.2554 C.ar    1  UNL1       -0.0045
     21 C         140.9515  144.8393  160.1461 C.ar    1  UNL1       -0.0027
     22 C         140.3339  145.3713  158.8870 C.ar    1  UNL1       -0.0003
     23 C         140.0610  144.4476  157.7370 C.ar    1  UNL1       -0.0000
     24 C         140.4055  142.9918  157.8464 C.ar    1  UNL1       -0.0003
     25 C         141.0231  142.4597  159.1055 C.ar    1  UNL1       -0.0027
     26 N         141.2967  141.6764  162.2141 N.am    1  UNL1       -0.3022
     27 C         141.9246  140.3192  162.0964 C.2     1  UNL1        0.2225
     28 O         143.1692  140.1369  161.2794 O.2     1  UNL1       -0.2751
     29 H         140.4798  141.7961  162.7503 H       1  UNL1        0.1497
     30 C         141.3078  139.1444  162.7959 C.3     1  UNL1        0.0873
     31 C         139.9444  138.5193  162.8183 C.3     1  UNL1        0.0758
     32 C         140.4354  137.4829  163.7850 C.3     1  UNL1        0.2649
     33 F         140.9266  136.4465  164.7518 F       1  UNL1       -0.2043
     34 F         139.0721  136.8578  163.8075 F       1  UNL1       -0.2043
     35 C         141.7988  138.1080  163.7626 C.3     1  UNL1        0.0758
@<TRIPOS>BOND
     1    10    11    1
     2    11    12   ar
     3    12    13   ar
     4    13    14   ar
     5    14    16    1
     6    16    17    1
     7    16    18    1
     8    14    15   ar
     9    15     4    1
    10     4     5    1
    11     5     6    1
    12     6     7    1
    13     7     2    1
    14     2     3    1
    15     2     1    1
    16    19     1    1
    17    19    26    1
    18    26    27   am
    19    27    28    2
    20    27    30    1
    21    30    31    1
    22    31    32    1
    23    32    33    1
    24    32    34    1
    25    32    35    1
    26    19    20    1
    27    20    21   ar
    28    21    22   ar
    29    22    23   ar
    30    23    24   ar
    31    24    25   ar
    32     7     8    1
    33     8     9    1
    34    15    11   ar
    35     9     4    1
    36    35    30    1
    37    25    20   ar
    38    26    29    1
