@<TRIPOS>MOLECULE
*****
 39 43 0 0 0
SMALL
GASTEIGER

@<TRIPOS>ATOM
      1 C         141.5573  141.7571  163.2444 C.3     1  UNL1        0.1031
      2 C         141.9607  140.8671  167.6370 C.ar    1  UNL1        0.0536
      3 C         140.9246  140.1543  166.8194 C.ar    1  UNL1        0.0042
      4 C         140.7902  140.4510  165.3552 C.ar    1  UNL1       -0.0025
      5 C         141.6917  141.4604  164.7086 C.ar    1  UNL1       -0.0036
      6 C         142.7277  142.1733  165.5262 C.ar    1  UNL1       -0.0025
      7 C         142.8622  141.8766  166.9904 C.ar    1  UNL1        0.0042
      8 N         141.2235  141.2813  170.0936 N.am    1  UNL1       -0.2743
      9 C         141.3579  140.9846  171.5578 C.3     1  UNL1        0.1152
     10 C         142.0951  140.5705  169.1012 C.2     1  UNL1        0.2491
     11 O         143.1012  139.5630  169.5730 O.2     1  UNL1       -0.2699
     12 C         140.5320  143.7536  169.6941 C.3     1  UNL1        0.0233
     13 C         140.2173  142.2888  169.6218 C.3     1  UNL1        0.0938
     14 C         141.1055  143.1141  162.7925 C.ar    1  UNL1       -0.0024
     15 C         140.2736  143.9691  163.7019 C.ar    1  UNL1       -0.0026
     16 C         139.8218  145.3261  163.2501 C.ar    1  UNL1        0.0010
     17 C         140.2018  145.8283  161.8887 C.ar    1  UNL1        0.0147
     18 C         141.0337  144.9735  160.9792 C.ar    1  UNL1        0.0500
     19 C         141.4855  143.6163  161.4311 C.ar    1  UNL1        0.0120
     20 N         141.4138  145.4757  159.6178 N.am    1  UNL1       -0.2839
     21 C         140.6192  145.0588  158.4158 C.2     1  UNL1        0.2256
     22 O         139.4444  144.1397  158.5752 O.2     1  UNL1       -0.2748
     23 H         142.1848  146.0789  159.5132 H       1  UNL1        0.1549
     24 C         140.9993  145.5610  157.0545 C.3     1  UNL1        0.0768
     25 C         140.7339  146.4532  155.8782 C.3     1  UNL1        0.0096
     26 C         141.9229  145.5387  155.8728 C.3     1  UNL1        0.0096
     27 N         141.8746  140.6967  162.2320 N.3     1  UNL1       -0.2644
     28 C         143.3027  140.3501  161.9315 C.3     1  UNL1        0.0901
     29 C         143.6200  139.2896  160.9191 C.3     1  UNL1        0.0900
     30 N         142.5092  138.5759  160.2073 N.3     1  UNL1       -0.2648
     31 C         141.0811  138.9225  160.5079 C.3     1  UNL1        0.0900
     32 C         140.7638  139.9829  161.5202 C.3     1  UNL1        0.0901
     33 C         142.8265  137.5154  159.1950 C.3     1  UNL1        0.1256
     34 C         142.6627  137.8024  157.7318 C.ar    1  UNL1        0.1041
     35 N         143.6817  138.4484  156.8406 N.ar    1  UNL1       -0.2456
     36 C         143.1000  138.5390  155.4609 C.ar    1  UNL1        0.0661
     37 C         143.7778  139.1179  154.2546 C.3     1  UNL1        0.0527
     38 C         141.7215  137.9489  155.4995 C.ar    1  UNL1        0.0513
     39 S         141.4512  137.4937  156.9030 S.2     1  UNL1       -0.0692
@<TRIPOS>BOND
     1    12    13    1
     2    13     8    1
     3     8     9    1
     4     8    10   am
     5    10    11    2
     6    10     2    1
     7     2     3   ar
     8     3     4   ar
     9     4     5   ar
    10     5     1    1
    11     1    14    1
    12    14    15   ar
    13    15    16   ar
    14    16    17   ar
    15    17    18   ar
    16    18    20    1
    17    20    21   am
    18    21    22    2
    19    21    24    1
    20    24    25    1
    21    25    26    1
    22    18    19   ar
    23     1    27    1
    24    27    28    1
    25    28    29    1
    26    29    30    1
    27    30    33    1
    28    33    34    1
    29    34    35   ar
    30    35    36   ar
    31    36    37    1
    32    36    38   ar
    33    38    39   ar
    34    30    31    1
    35    31    32    1
    36     5     6   ar
    37     6     7   ar
    38     7     2   ar
    39    19    14   ar
    40    32    27    1
    41    26    24    1
    42    39    34   ar
    43    20    23    1
@<TRIPOS>MOLECULE
*****
 39 43 0 0 0
SMALL
GASTEIGER

@<TRIPOS>ATOM
      1 C         142.1868  141.4954  161.6231 C.3     1  UNL1        0.1031
      2 C         142.8704  139.6086  165.6508 C.ar    1  UNL1        0.0536
      3 C         141.5292  139.4976  164.9886 C.ar    1  UNL1        0.0042
      4 C         141.3013  140.1266  163.6460 C.ar    1  UNL1       -0.0025
      5 C         142.4147  140.8665  162.9657 C.ar    1  UNL1       -0.0036
      6 C         143.7560  140.9774  163.6279 C.ar    1  UNL1       -0.0025
      7 C         143.9838  140.3485  164.9705 C.ar    1  UNL1        0.0042
      8 N         142.4909  139.5913  168.2210 N.am    1  UNL1       -0.2743
      9 C         142.7188  138.9624  169.5635 C.3     1  UNL1        0.1152
     10 C         143.0983  138.9797  166.9934 C.2     1  UNL1        0.2491
     11 O         143.9336  137.7391  167.1084 O.2     1  UNL1       -0.2699
     12 C         142.3002  142.1824  168.2092 C.3     1  UNL1        0.0233
     13 C         141.6556  140.8319  168.1060 C.3     1  UNL1        0.0938
     14 C         141.6046  142.8747  161.5301 C.ar    1  UNL1       -0.0024
     15 C         141.5984  143.7689  162.7344 C.ar    1  UNL1       -0.0026
     16 C         141.0162  145.1482  162.6414 C.ar    1  UNL1        0.0010
     17 C         140.4403  145.6333  161.3441 C.ar    1  UNL1        0.0147
     18 C         140.4465  144.7391  160.1398 C.ar    1  UNL1        0.0500
     19 C         141.0287  143.3597  160.2328 C.ar    1  UNL1        0.0120
     20 N         139.8706  145.2242  158.8425 N.am    1  UNL1       -0.2839
     21 C         140.7575  145.8829  157.8279 C.2     1  UNL1        0.2256
     22 O         142.2204  146.0566  158.1106 O.2     1  UNL1       -0.2748
     23 H         138.9105  145.1102  158.6570 H       1  UNL1        0.1549
     24 C         140.1815  146.3680  156.5306 C.3     1  UNL1        0.0768
     25 C         140.3070  146.5748  155.0503 C.3     1  UNL1        0.0096
     26 C         139.0585  147.0013  155.7640 C.3     1  UNL1        0.0096
     27 N         142.5411  140.7451  160.3735 N.3     1  UNL1       -0.2644
     28 C         141.7587  139.5263  159.9832 C.3     1  UNL1        0.0901
     29 C         142.1130  138.7760  158.7336 C.3     1  UNL1        0.0900
     30 N         143.2498  139.2445  157.8743 N.3     1  UNL1       -0.2648
     31 C         144.0322  140.4633  158.2646 C.3     1  UNL1        0.0900
     32 C         143.6779  141.2136  159.5142 C.3     1  UNL1        0.0901
     33 C         143.6041  138.4941  156.6247 C.3     1  UNL1        0.1256
     34 C         142.8898  137.2189  156.2876 C.ar    1  UNL1        0.1041
     35 N         143.3506  135.8332  156.6302 N.ar    1  UNL1       -0.2456
     36 C         142.3349  134.8634  156.1030 C.ar    1  UNL1        0.0661
     37 C         142.3968  133.3695  156.2231 C.3     1  UNL1        0.0527
     38 C         141.2464  135.6498  155.4345 C.ar    1  UNL1        0.0513
     39 S         141.5893  137.1056  155.5486 S.2     1  UNL1       -0.0692
@<TRIPOS>BOND
     1    12    13    1
     2    13     8    1
     3     8     9    1
     4     8    10   am
     5    10    11    2
     6    10     2    1
     7     2     3   ar
     8     3     4   ar
     9     4     5   ar
    10     5     1    1
    11     1    14    1
    12    14    15   ar
    13    15    16   ar
    14    16    17   ar
    15    17    18   ar
    16    18    20    1
    17    20    21   am
    18    21    22    2
    19    21    24    1
    20    24    25    1
    21    25    26    1
    22    18    19   ar
    23     1    27    1
    24    27    28    1
    25    28    29    1
    26    29    30    1
    27    30    33    1
    28    33    34    1
    29    34    35   ar
    30    35    36   ar
    31    36    37    1
    32    36    38   ar
    33    38    39   ar
    34    30    31    1
    35    31    32    1
    36     5     6   ar
    37     6     7   ar
    38     7     2   ar
    39    19    14   ar
    40    32    27    1
    41    26    24    1
    42    39    34   ar
    43    20    23    1
@<TRIPOS>MOLECULE
*****
 39 43 0 0 0
SMALL
GASTEIGER

@<TRIPOS>ATOM
      1 C         141.7369  138.9711  158.4309 C.3     1  UNL1        0.1031
      2 C         141.8020  136.0557  155.0037 C.ar    1  UNL1        0.0536
      3 C         140.5593  136.8437  155.2945 C.ar    1  UNL1        0.0042
      4 C         140.5376  137.8155  156.4369 C.ar    1  UNL1       -0.0025
      5 C         141.7586  137.9993  157.2885 C.ar    1  UNL1       -0.0036
      6 C         143.0013  137.2113  156.9976 C.ar    1  UNL1       -0.0025
      7 C         143.0230  136.2395  155.8552 C.ar    1  UNL1        0.0042
      8 N         141.6556  133.6163  154.1217 N.am    1  UNL1       -0.2743
      9 C         141.6773  132.6445  152.9792 C.3     1  UNL1        0.1152
     10 C         141.8237  135.0839  153.8612 C.2     1  UNL1        0.2491
     11 O         142.0134  135.5797  152.4583 O.2     1  UNL1       -0.2699
     12 C         142.6168  132.5067  156.2653 C.3     1  UNL1        0.0233
     13 C         141.4658  133.1204  155.5246 C.3     1  UNL1        0.0938
     14 C         142.4169  140.3013  158.2970 C.ar    1  UNL1       -0.0024
     15 C         143.2346  140.6063  157.0769 C.ar    1  UNL1       -0.0026
     16 C         143.9146  141.9365  156.9430 C.ar    1  UNL1        0.0010
     17 C         143.7771  142.9619  158.0292 C.ar    1  UNL1        0.0147
     18 C         142.9595  142.6570  159.2492 C.ar    1  UNL1        0.0500
     19 C         142.2794  141.3267  159.3832 C.ar    1  UNL1        0.0120
     20 N         142.8219  143.6823  160.3354 N.am    1  UNL1       -0.2839
     21 C         143.2999  143.3735  161.7232 C.2     1  UNL1        0.2256
     22 O         143.9155  142.0393  162.0250 O.2     1  UNL1       -0.2748
     23 H         142.4179  144.5580  160.1374 H       1  UNL1        0.1549
     24 C         143.1624  144.3989  162.8094 C.3     1  UNL1        0.0768
     25 C         143.7836  145.2620  163.8672 C.3     1  UNL1        0.0096
     26 C         142.3029  145.3118  163.6327 C.3     1  UNL1        0.0096
     27 N         141.0352  138.6126  159.7073 N.3     1  UNL1       -0.2644
     28 C         139.5462  138.7612  159.8118 C.3     1  UNL1        0.0901
     29 C         138.8445  138.4027  161.0882 C.3     1  UNL1        0.0900
     30 N         139.6318  137.8957  162.2600 N.3     1  UNL1       -0.2648
     31 C         141.1207  137.7472  162.1555 C.3     1  UNL1        0.0900
     32 C         141.8224  138.1056  160.8792 C.3     1  UNL1        0.0901
     33 C         138.9301  137.5372  163.5364 C.3     1  UNL1        0.1256
     34 C         139.0055  138.4583  164.7180 C.ar    1  UNL1        0.1041
     35 N         139.7197  139.7765  164.7641 N.ar    1  UNL1       -0.2456
     36 C         139.5356  140.3558  166.1354 C.ar    1  UNL1        0.0661
     37 C         140.0833  141.6653  166.6203 C.3     1  UNL1        0.0527
     38 C         138.7076  139.3955  166.9369 C.ar    1  UNL1        0.0513
     39 S         138.3800  138.2227  166.0609 S.2     1  UNL1       -0.0692
@<TRIPOS>BOND
     1    12    13    1
     2    13     8    1
     3     8     9    1
     4     8    10   am
     5    10    11    2
     6    10     2    1
     7     2     3   ar
     8     3     4   ar
     9     4     5   ar
    10     5     1    1
    11     1    14    1
    12    14    15   ar
    13    15    16   ar
    14    16    17   ar
    15    17    18   ar
    16    18    20    1
    17    20    21   am
    18    21    22    2
    19    21    24    1
    20    24    25    1
    21    25    26    1
    22    18    19   ar
    23     1    27    1
    24    27    28    1
    25    28    29    1
    26    29    30    1
    27    30    33    1
    28    33    34    1
    29    34    35   ar
    30    35    36   ar
    31    36    37    1
    32    36    38   ar
    33    38    39   ar
    34    30    31    1
    35    31    32    1
    36     5     6   ar
    37     6     7   ar
    38     7     2   ar
    39    19    14   ar
    40    32    27    1
    41    26    24    1
    42    39    34   ar
    43    20    23    1
@<TRIPOS>MOLECULE
*****
 39 43 0 0 0
SMALL
GASTEIGER

@<TRIPOS>ATOM
      1 C         138.4026  142.4477  156.5383 C.3     1  UNL1        0.1031
      2 C         139.0426  146.7115  155.2498 C.ar    1  UNL1        0.0536
      3 C         137.7750  145.9990  154.8818 C.ar    1  UNL1        0.0042
      4 C         137.5617  144.5777  155.3114 C.ar    1  UNL1       -0.0025
      5 C         138.6160  143.8689  156.1088 C.ar    1  UNL1       -0.0036
      6 C         139.8836  144.5814  156.4768 C.ar    1  UNL1       -0.0025
      7 C         140.0969  146.0027  156.0473 C.ar    1  UNL1        0.0042
      8 N         138.9204  149.2570  155.7547 N.am    1  UNL1       -0.2743
      9 C         139.1338  150.6783  155.3252 C.3     1  UNL1        0.1152
     10 C         139.2560  148.1327  154.8203 C.2     1  UNL1        0.2491
     11 O         139.8049  148.4297  153.4563 O.2     1  UNL1       -0.2699
     12 C         138.1345  150.0772  158.0913 C.3     1  UNL1        0.0233
     13 C         138.3714  148.9601  157.1188 C.3     1  UNL1        0.0938
     14 C         137.5717  141.5261  155.6955 C.ar    1  UNL1       -0.0024
     15 C         137.9288  141.2995  154.2564 C.ar    1  UNL1       -0.0026
     16 C         137.0979  140.3780  153.4136 C.ar    1  UNL1        0.0010
     17 C         135.9099  139.6831  154.0099 C.ar    1  UNL1        0.0147
     18 C         135.5527  139.9097  155.4490 C.ar    1  UNL1        0.0500
     19 C         136.3836  140.8312  156.2918 C.ar    1  UNL1        0.0120
     20 N         134.3646  139.2147  156.0453 N.am    1  UNL1       -0.2839
     21 C         133.0411  139.9172  156.1136 C.2     1  UNL1        0.2256
     22 O         132.9056  141.3147  155.5855 O.2     1  UNL1       -0.2748
     23 H         134.4536  138.2976  156.3918 H       1  UNL1        0.1549
     24 C         131.8530  139.2223  156.7099 C.3     1  UNL1        0.0768
     25 C         130.7394  138.2240  156.5953 C.3     1  UNL1        0.0096
     26 C         130.9089  139.0170  157.8572 C.3     1  UNL1        0.0096
     27 N         139.0202  141.9479  157.8106 N.3     1  UNL1       -0.2644
     28 C         140.1692  140.9851  157.7589 C.3     1  UNL1        0.0901
     29 C         140.7868  140.4854  159.0314 C.3     1  UNL1        0.0900
     30 N         140.2553  140.9484  160.3554 N.3     1  UNL1       -0.2648
     31 C         139.1062  141.9112  160.4071 C.3     1  UNL1        0.0900
     32 C         138.4886  142.4109  159.1348 C.3     1  UNL1        0.0901
     33 C         140.8729  140.4487  161.6278 C.3     1  UNL1        0.1256
     34 C         140.0851  139.5618  162.5459 C.ar    1  UNL1        0.1041
     35 N         139.6829  139.8859  163.9542 N.ar    1  UNL1       -0.2456
     36 C         138.9105  138.7196  164.4957 C.ar    1  UNL1        0.0661
     37 C         138.3174  138.6163  165.8695 C.3     1  UNL1        0.0527
     38 C         138.8353  137.6748  163.4221 C.ar    1  UNL1        0.0513
     39 S         139.5613  138.1952  162.2170 S.2     1  UNL1       -0.0692
@<TRIPOS>BOND
     1    12    13    1
     2    13     8    1
     3     8     9    1
     4     8    10   am
     5    10    11    2
     6    10     2    1
     7     2     3   ar
     8     3     4   ar
     9     4     5   ar
    10     5     1    1
    11     1    14    1
    12    14    15   ar
    13    15    16   ar
    14    16    17   ar
    15    17    18   ar
    16    18    20    1
    17    20    21   am
    18    21    22    2
    19    21    24    1
    20    24    25    1
    21    25    26    1
    22    18    19   ar
    23     1    27    1
    24    27    28    1
    25    28    29    1
    26    29    30    1
    27    30    33    1
    28    33    34    1
    29    34    35   ar
    30    35    36   ar
    31    36    37    1
    32    36    38   ar
    33    38    39   ar
    34    30    31    1
    35    31    32    1
    36     5     6   ar
    37     6     7   ar
    38     7     2   ar
    39    19    14   ar
    40    32    27    1
    41    26    24    1
    42    39    34   ar
    43    20    23    1
@<TRIPOS>MOLECULE
*****
 39 43 0 0 0
SMALL
GASTEIGER

@<TRIPOS>ATOM
      1 C         139.9199  139.5896  158.4414 C.3     1  UNL1        0.1031
      2 C         139.0797  143.5401  156.4571 C.ar    1  UNL1        0.0536
      3 C         140.4076  142.8703  156.2622 C.ar    1  UNL1        0.0042
      4 C         140.6877  141.5535  156.9237 C.ar    1  UNL1       -0.0025
      5 C         139.6398  140.9064  157.7800 C.ar    1  UNL1       -0.0036
      6 C         138.3119  141.5762  157.9748 C.ar    1  UNL1       -0.0025
      7 C         138.0319  142.8930  157.3134 C.ar    1  UNL1        0.0042
      8 N         139.3880  146.1178  156.3559 N.am    1  UNL1       -0.2743
      9 C         139.1079  147.4346  155.6945 C.3     1  UNL1        0.1152
     10 C         138.7996  144.8569  155.7956 C.2     1  UNL1        0.2491
     11 O         137.9312  144.9129  154.5740 O.2     1  UNL1       -0.2699
     12 C         141.7476  145.9824  157.4349 C.3     1  UNL1        0.0233
     13 C         140.2565  146.0619  157.5777 C.3     1  UNL1        0.0938
     14 C         139.6346  139.4086  159.9028 C.ar    1  UNL1       -0.0024
     15 C         139.2392  138.0605  160.4285 C.ar    1  UNL1       -0.0026
     16 C         138.9538  137.8796  161.8900 C.ar    1  UNL1        0.0010
     17 C         139.0639  139.0467  162.8257 C.ar    1  UNL1        0.0147
     18 C         139.4593  140.3948  162.3001 C.ar    1  UNL1        0.0500
     19 C         139.7447  140.5758  160.8386 C.ar    1  UNL1        0.0120
     20 N         139.5694  141.5619  163.2359 N.am    1  UNL1       -0.2839
     21 C         138.3469  142.3536  163.5945 C.2     1  UNL1        0.2256
     22 O         137.0142  141.9782  163.0173 O.2     1  UNL1       -0.2748
     23 H         140.4441  141.8083  163.6148 H       1  UNL1        0.1549
     24 C         138.4570  143.5207  164.5303 C.3     1  UNL1        0.0768
     25 C         137.8286  144.6916  165.2261 C.3     1  UNL1        0.0096
     26 C         139.2760  144.3713  165.4553 C.3     1  UNL1        0.0096
     27 N         140.4853  138.4537  157.6414 N.3     1  UNL1       -0.2644
     28 C         141.8962  138.0011  157.8749 C.3     1  UNL1        0.0901
     29 C         142.4616  136.8652  157.0749 C.3     1  UNL1        0.0900
     30 N         141.6161  136.1818  156.0414 N.3     1  UNL1       -0.2648
     31 C         140.2052  136.6344  155.8079 C.3     1  UNL1        0.0900
     32 C         139.6398  137.7703  156.6079 C.3     1  UNL1        0.0901
     33 C         142.1815  135.0459  155.2413 C.3     1  UNL1        0.1256
     34 C         142.7903  133.8664  155.9401 C.ar    1  UNL1        0.1041
     35 N         144.0738  133.8676  156.7164 N.ar    1  UNL1       -0.2456
     36 C         144.2993  132.4806  157.2413 C.ar    1  UNL1        0.0661
     37 C         145.4643  132.0309  158.0722 C.3     1  UNL1        0.0527
     38 C         143.1552  131.6223  156.7894 C.ar    1  UNL1        0.0513
     39 S         142.2225  132.4787  155.9852 S.2     1  UNL1       -0.0692
@<TRIPOS>BOND
     1    12    13    1
     2    13     8    1
     3     8     9    1
     4     8    10   am
     5    10    11    2
     6    10     2    1
     7     2     3   ar
     8     3     4   ar
     9     4     5   ar
    10     5     1    1
    11     1    14    1
    12    14    15   ar
    13    15    16   ar
    14    16    17   ar
    15    17    18   ar
    16    18    20    1
    17    20    21   am
    18    21    22    2
    19    21    24    1
    20    24    25    1
    21    25    26    1
    22    18    19   ar
    23     1    27    1
    24    27    28    1
    25    28    29    1
    26    29    30    1
    27    30    33    1
    28    33    34    1
    29    34    35   ar
    30    35    36   ar
    31    36    37    1
    32    36    38   ar
    33    38    39   ar
    34    30    31    1
    35    31    32    1
    36     5     6   ar
    37     6     7   ar
    38     7     2   ar
    39    19    14   ar
    40    32    27    1
    41    26    24    1
    42    39    34   ar
    43    20    23    1
@<TRIPOS>MOLECULE
*****
 39 43 0 0 0
SMALL
GASTEIGER

@<TRIPOS>ATOM
      1 C         140.8105  138.3507  157.4589 C.3     1  UNL1        0.1031
      2 C         140.7713  138.7801  161.9382 C.ar    1  UNL1        0.0536
      3 C         139.5631  138.2496  161.2250 C.ar    1  UNL1        0.0042
      4 C         139.5761  138.1065  159.7319 C.ar    1  UNL1       -0.0025
      5 C         140.7975  138.4938  158.9520 C.ar    1  UNL1       -0.0036
      6 C         142.0057  139.0242  159.6652 C.ar    1  UNL1       -0.0025
      7 C         141.9927  139.1674  161.1583 C.ar    1  UNL1        0.0042
      8 N         140.0324  140.0709  164.0684 N.am    1  UNL1       -0.2743
      9 C         140.0194  140.2141  165.5615 C.3     1  UNL1        0.1152
     10 C         140.7583  138.9232  163.4313 C.2     1  UNL1        0.2491
     11 O         141.4711  137.9187  164.2873 O.2     1  UNL1       -0.2699
     12 C         137.8458  141.2958  163.3838 C.3     1  UNL1        0.0233
     13 C         139.3196  141.0755  163.2123 C.3     1  UNL1        0.0938
     14 C         142.0499  137.8728  156.7621 C.ar    1  UNL1       -0.0024
     15 C         142.8509  138.8222  155.9211 C.ar    1  UNL1       -0.0026
     16 C         144.0902  138.3443  155.2243 C.ar    1  UNL1        0.0010
     17 C         144.5287  136.9171  155.3684 C.ar    1  UNL1        0.0147
     18 C         143.7278  135.9677  156.2093 C.ar    1  UNL1        0.0500
     19 C         142.4883  136.4456  156.9062 C.ar    1  UNL1        0.0120
     20 N         144.1662  134.5405  156.3535 N.am    1  UNL1       -0.2839
     21 C         143.6142  133.4900  155.4361 C.2     1  UNL1        0.2256
     22 O         142.6236  133.8667  154.3745 O.2     1  UNL1       -0.2748
     23 H         144.8164  134.2932  157.0502 H       1  UNL1        0.1549
     24 C         144.0526  132.0628  155.5802 C.3     1  UNL1        0.0768
     25 C         144.9445  131.0353  156.2117 C.3     1  UNL1        0.0096
     26 C         143.9202  130.6183  155.1984 C.3     1  UNL1        0.0096
     27 N         139.5842  138.6854  156.6626 N.3     1  UNL1       -0.2644
     28 C         139.0209  137.6853  155.6969 C.3     1  UNL1        0.0901
     29 C         137.7946  138.0201  154.9006 C.3     1  UNL1        0.0900
     30 N         137.1316  139.3549  155.0700 N.3     1  UNL1       -0.2648
     31 C         137.6949  140.3549  156.0357 C.3     1  UNL1        0.0900
     32 C         138.9212  140.0202  156.8320 C.3     1  UNL1        0.0901
     33 C         135.9052  139.6897  154.2737 C.3     1  UNL1        0.1256
     34 C         134.6202  140.0139  154.9763 C.ar    1  UNL1        0.1041
     35 N         133.9894  139.2113  156.0753 N.ar    1  UNL1       -0.2456
     36 C         132.7197  139.8989  156.4815 C.ar    1  UNL1        0.0661
     37 C         131.7706  139.4397  157.5483 C.3     1  UNL1        0.0527
     38 C         132.5657  141.1265  155.6333 C.ar    1  UNL1        0.0513
     39 S         133.7403  141.1976  154.7030 S.2     1  UNL1       -0.0692
@<TRIPOS>BOND
     1    12    13    1
     2    13     8    1
     3     8     9    1
     4     8    10   am
     5    10    11    2
     6    10     2    1
     7     2     3   ar
     8     3     4   ar
     9     4     5   ar
    10     5     1    1
    11     1    14    1
    12    14    15   ar
    13    15    16   ar
    14    16    17   ar
    15    17    18   ar
    16    18    20    1
    17    20    21   am
    18    21    22    2
    19    21    24    1
    20    24    25    1
    21    25    26    1
    22    18    19   ar
    23     1    27    1
    24    27    28    1
    25    28    29    1
    26    29    30    1
    27    30    33    1
    28    33    34    1
    29    34    35   ar
    30    35    36   ar
    31    36    37    1
    32    36    38   ar
    33    38    39   ar
    34    30    31    1
    35    31    32    1
    36     5     6   ar
    37     6     7   ar
    38     7     2   ar
    39    19    14   ar
    40    32    27    1
    41    26    24    1
    42    39    34   ar
    43    20    23    1
@<TRIPOS>MOLECULE
*****
 39 43 0 0 0
SMALL
GASTEIGER

@<TRIPOS>ATOM
      1 C         140.3517  139.1205  158.3423 C.3     1  UNL1        0.1031
      2 C         140.2086  138.9607  162.8372 C.ar    1  UNL1        0.0536
      3 C         141.1685  139.8859  162.1498 C.ar    1  UNL1        0.0042
      4 C         141.2162  139.9392  160.6515 C.ar    1  UNL1       -0.0025
      5 C         140.3040  139.0673  159.8406 C.ar    1  UNL1       -0.0036
      6 C         139.3441  138.1421  160.5280 C.ar    1  UNL1       -0.0025
      7 C         139.2963  138.0889  162.0263 C.ar    1  UNL1        0.0042
      8 N         139.1054  139.6702  165.0799 N.am    1  UNL1       -0.2743
      9 C         139.0577  139.6169  166.5781 C.3     1  UNL1        0.1152
     10 C         140.1609  138.9075  164.3355 C.2     1  UNL1        0.2491
     11 O         141.1687  138.0915  165.0894 O.2     1  UNL1       -0.2699
     12 C         138.3820  141.9248  164.0105 C.3     1  UNL1        0.0233
     13 C         138.0975  140.4863  164.3259 C.3     1  UNL1        0.0938
     14 C         139.7342  140.2766  157.6129 C.ar    1  UNL1       -0.0024
     15 C         140.6093  141.3154  156.9762 C.ar    1  UNL1       -0.0026
     16 C         139.9918  142.4715  156.2468 C.ar    1  UNL1        0.0010
     17 C         138.4993  142.5889  156.1540 C.ar    1  UNL1        0.0147
     18 C         137.6242  141.5502  156.7907 C.ar    1  UNL1        0.0500
     19 C         138.2417  140.3940  157.5201 C.ar    1  UNL1        0.0120
     20 N         136.1317  141.6676  156.6979 N.am    1  UNL1       -0.2839
     21 C         135.3405  140.6190  155.9739 C.2     1  UNL1        0.2256
     22 O         136.0417  139.4529  155.3426 O.2     1  UNL1       -0.2748
     23 H         135.6715  142.4330  157.1122 H       1  UNL1        0.1549
     24 C         133.8480  140.7364  155.8812 C.3     1  UNL1        0.0768
     25 C         132.4811  140.3095  156.3277 C.3     1  UNL1        0.0096
     26 C         132.6297  141.3666  155.2739 C.3     1  UNL1        0.0096
     27 N         141.0169  138.0177  157.5734 N.3     1  UNL1       -0.2644
     28 C         140.2886  137.3417  156.4498 C.3     1  UNL1        0.0901
     29 C         140.9539  136.2388  155.6809 C.3     1  UNL1        0.0900
     30 N         142.3474  135.8120  156.0357 N.3     1  UNL1       -0.2648
     31 C         143.0757  136.4880  157.1593 C.3     1  UNL1        0.0900
     32 C         142.4105  137.5909  157.9282 C.3     1  UNL1        0.0901
     33 C         143.0127  134.7091  155.2668 C.3     1  UNL1        0.1256
     34 C         143.1552  133.3476  155.8799 C.ar    1  UNL1        0.1041
     35 N         144.2398  132.9134  156.8207 N.ar    1  UNL1       -0.2456
     36 C         143.9931  131.4786  157.1821 C.ar    1  UNL1        0.0661
     37 C         144.8354  130.6431  158.0998 C.3     1  UNL1        0.0527
     38 C         142.7559  131.0261  156.4647 C.ar    1  UNL1        0.0513
     39 S         142.2380  132.1811  155.6598 S.2     1  UNL1       -0.0692
@<TRIPOS>BOND
     1    12    13    1
     2    13     8    1
     3     8     9    1
     4     8    10   am
     5    10    11    2
     6    10     2    1
     7     2     3   ar
     8     3     4   ar
     9     4     5   ar
    10     5     1    1
    11     1    14    1
    12    14    15   ar
    13    15    16   ar
    14    16    17   ar
    15    17    18   ar
    16    18    20    1
    17    20    21   am
    18    21    22    2
    19    21    24    1
    20    24    25    1
    21    25    26    1
    22    18    19   ar
    23     1    27    1
    24    27    28    1
    25    28    29    1
    26    29    30    1
    27    30    33    1
    28    33    34    1
    29    34    35   ar
    30    35    36   ar
    31    36    37    1
    32    36    38   ar
    33    38    39   ar
    34    30    31    1
    35    31    32    1
    36     5     6   ar
    37     6     7   ar
    38     7     2   ar
    39    19    14   ar
    40    32    27    1
    41    26    24    1
    42    39    34   ar
    43    20    23    1
@<TRIPOS>MOLECULE
*****
 39 43 0 0 0
SMALL
GASTEIGER

@<TRIPOS>ATOM
      1 C         140.4745  139.3806  158.6372 C.3     1  UNL1        0.1031
      2 C         139.3548  143.3200  156.7725 C.ar    1  UNL1        0.0536
      3 C         138.5606  142.7838  157.9265 C.ar    1  UNL1        0.0042
      4 C         138.9339  141.4707  158.5480 C.ar    1  UNL1       -0.0025
      5 C         140.1013  140.6937  158.0156 C.ar    1  UNL1       -0.0036
      6 C         140.8954  141.2299  156.8617 C.ar    1  UNL1       -0.0025
      7 C         140.5222  142.5431  156.2401 C.ar    1  UNL1        0.0042
      8 N         139.6227  145.9005  156.6334 N.am    1  UNL1       -0.2743
      9 C         139.2495  147.2136  156.0118 C.3     1  UNL1        0.1152
     10 C         138.9816  144.6332  156.1509 C.2     1  UNL1        0.2491
     11 O         137.9673  144.6790  155.0468 O.2     1  UNL1       -0.2699
     12 C         142.1009  145.8387  157.4110 C.3     1  UNL1        0.0233
     13 C         140.6370  145.8547  157.7375 C.3     1  UNL1        0.0938
     14 C         140.3118  139.1768  160.1144 C.ar    1  UNL1       -0.0024
     15 C         139.1640  138.3650  160.6376 C.ar    1  UNL1       -0.0026
     16 C         139.0013  138.1613  162.1147 C.ar    1  UNL1        0.0010
     17 C         139.9863  138.7693  163.0687 C.ar    1  UNL1        0.0147
     18 C         141.1340  139.5811  162.5456 C.ar    1  UNL1        0.0500
     19 C         141.2968  139.7849  161.0683 C.ar    1  UNL1        0.0120
     20 N         142.1190  140.1891  163.4995 N.am    1  UNL1       -0.2839
     21 C         141.8244  141.5137  164.1387 C.2     1  UNL1        0.2256
     22 O         140.5448  142.2304  163.8238 O.2     1  UNL1       -0.2748
     23 H         142.9588  139.7188  163.7062 H       1  UNL1        0.1549
     24 C         142.8094  142.1218  165.0927 C.3     1  UNL1        0.0768
     25 C         144.0496  142.9282  165.3407 C.3     1  UNL1        0.0096
     26 C         143.2752  142.3685  166.4970 C.3     1  UNL1        0.0096
     27 N         141.0104  138.2712  157.7817 N.3     1  UNL1       -0.2644
     28 C         142.4381  137.8347  157.9271 C.3     1  UNL1        0.0901
     29 C         142.9740  136.7253  157.0714 C.3     1  UNL1        0.0900
     30 N         142.0823  136.0524  156.0705 N.3     1  UNL1       -0.2648
     31 C         140.6545  136.4889  155.9252 C.3     1  UNL1        0.0900
     32 C         140.1186  137.5982  156.7807 C.3     1  UNL1        0.0901
     33 C         142.6182  134.9429  155.2149 C.3     1  UNL1        0.1256
     34 C         142.9090  133.6020  155.8210 C.ar    1  UNL1        0.1041
     35 N         144.0733  133.2681  156.7058 N.ar    1  UNL1       -0.2456
     36 C         143.9705  131.8193  157.0803 C.ar    1  UNL1        0.0661
     37 C         144.9275  131.0645  157.9546 C.3     1  UNL1        0.0527
     38 C         142.7426  131.2577  156.4270 C.ar    1  UNL1        0.0513
     39 S         142.0865  132.3594  155.6487 S.2     1  UNL1       -0.0692
@<TRIPOS>BOND
     1    12    13    1
     2    13     8    1
     3     8     9    1
     4     8    10   am
     5    10    11    2
     6    10     2    1
     7     2     3   ar
     8     3     4   ar
     9     4     5   ar
    10     5     1    1
    11     1    14    1
    12    14    15   ar
    13    15    16   ar
    14    16    17   ar
    15    17    18   ar
    16    18    20    1
    17    20    21   am
    18    21    22    2
    19    21    24    1
    20    24    25    1
    21    25    26    1
    22    18    19   ar
    23     1    27    1
    24    27    28    1
    25    28    29    1
    26    29    30    1
    27    30    33    1
    28    33    34    1
    29    34    35   ar
    30    35    36   ar
    31    36    37    1
    32    36    38   ar
    33    38    39   ar
    34    30    31    1
    35    31    32    1
    36     5     6   ar
    37     6     7   ar
    38     7     2   ar
    39    19    14   ar
    40    32    27    1
    41    26    24    1
    42    39    34   ar
    43    20    23    1
@<TRIPOS>MOLECULE
*****
 39 43 0 0 0
SMALL
GASTEIGER

@<TRIPOS>ATOM
      1 C         141.3287  141.5621  162.6903 C.3     1  UNL1        0.1031
      2 C         140.7618  142.2429  167.1022 C.ar    1  UNL1        0.0536
      3 C         142.1300  142.3494  166.4966 C.ar    1  UNL1        0.0042
      4 C         142.3189  142.1224  165.0259 C.ar    1  UNL1       -0.0025
      5 C         141.1397  141.7890  164.1609 C.ar    1  UNL1       -0.0036
      6 C         139.7716  141.6825  164.7666 C.ar    1  UNL1       -0.0025
      7 C         139.5827  141.9094  166.2372 C.ar    1  UNL1        0.0042
      8 N         140.8206  141.3522  169.5421 N.am    1  UNL1       -0.2743
      9 C         140.6317  141.5791  171.0128 C.3     1  UNL1        0.1152
     10 C         140.5729  142.4698  168.5729 C.2     1  UNL1        0.2491
     11 O         140.1362  143.8143  169.0743 O.2     1  UNL1       -0.2699
     12 C         142.4423  139.3256  169.6577 C.3     1  UNL1        0.0233
     13 C         141.2573  140.0075  169.0407 C.3     1  UNL1        0.0938
     14 C         141.8337  140.2397  162.1942 C.ar    1  UNL1       -0.0024
     15 C         141.7382  139.0245  163.0685 C.ar    1  UNL1       -0.0026
     16 C         142.2432  137.7021  162.5725 C.ar    1  UNL1        0.0010
     17 C         142.8438  137.5947  161.2022 C.ar    1  UNL1        0.0147
     18 C         142.9394  138.8098  160.3279 C.ar    1  UNL1        0.0500
     19 C         142.4343  140.1323  160.8239 C.ar    1  UNL1        0.0120
     20 N         143.5399  138.7025  158.9576 N.am    1  UNL1       -0.2839
     21 C         142.6844  138.2999  157.7932 C.2     1  UNL1        0.2256
     22 O         141.2282  138.0046  157.9990 O.2     1  UNL1       -0.2748
     23 H         144.4957  138.8962  158.8225 H       1  UNL1        0.1549
     24 C         143.2850  138.1925  156.4229 C.3     1  UNL1        0.0768
     25 C         144.0544  137.4113  155.3993 C.3     1  UNL1        0.0096
     26 C         143.5558  138.7879  155.0730 C.3     1  UNL1        0.0096
     27 N         141.0125  142.6576  161.7156 N.3     1  UNL1       -0.2644
     28 C         141.8421  143.9072  161.6969 C.3     1  UNL1        0.0901
     29 C         141.5259  145.0027  160.7222 C.3     1  UNL1        0.0900
     30 N         140.3803  144.8486  159.7663 N.3     1  UNL1       -0.2648
     31 C         139.5508  143.5989  159.7851 C.3     1  UNL1        0.0900
     32 C         139.8669  142.5035  160.7597 C.3     1  UNL1        0.0901
     33 C         140.0641  145.9441  158.7916 C.3     1  UNL1        0.1256
     34 C         140.5674  145.8612  157.3810 C.ar    1  UNL1        0.1041
     35 N         141.7907  145.1236  156.9233 N.ar    1  UNL1       -0.2456
     36 C         141.9152  145.3080  155.4398 C.ar    1  UNL1        0.0661
     37 C         142.9961  144.7404  154.5685 C.3     1  UNL1        0.0527
     38 C         140.7688  146.1595  154.9808 C.ar    1  UNL1        0.0513
     39 S         139.9358  146.5015  156.1805 S.2     1  UNL1       -0.0692
@<TRIPOS>BOND
     1    12    13    1
     2    13     8    1
     3     8     9    1
     4     8    10   am
     5    10    11    2
     6    10     2    1
     7     2     3   ar
     8     3     4   ar
     9     4     5   ar
    10     5     1    1
    11     1    14    1
    12    14    15   ar
    13    15    16   ar
    14    16    17   ar
    15    17    18   ar
    16    18    20    1
    17    20    21   am
    18    21    22    2
    19    21    24    1
    20    24    25    1
    21    25    26    1
    22    18    19   ar
    23     1    27    1
    24    27    28    1
    25    28    29    1
    26    29    30    1
    27    30    33    1
    28    33    34    1
    29    34    35   ar
    30    35    36   ar
    31    36    37    1
    32    36    38   ar
    33    38    39   ar
    34    30    31    1
    35    31    32    1
    36     5     6   ar
    37     6     7   ar
    38     7     2   ar
    39    19    14   ar
    40    32    27    1
    41    26    24    1
    42    39    34   ar
    43    20    23    1
