@<TRIPOS>MOLECULE
*****
 36 39 0 0 0
SMALL
GASTEIGER

@<TRIPOS>ATOM
      1 C         139.7055  140.6299  164.6391 C.ar    1  UNL1        0.0463
      2 C         138.8392  139.9895  165.6829 C.ar    1  UNL1        0.0183
      3 C         138.5843  138.5119  165.6425 C.ar    1  UNL1        0.0741
      4 C         139.1956  137.6747  164.5584 C.ar    1  UNL1        0.0230
      5 C         140.0620  138.3151  163.5146 C.ar    1  UNL1        0.0825
      6 N         140.6733  137.4779  162.4306 N.ar    1  UNL1       -0.2425
      7 C         141.5396  138.1183  161.3868 C.ar    1  UNL1        0.1133
      8 C         141.7945  139.5959  161.4272 C.ar    1  UNL1        0.0674
      9 C         141.1831  140.4331  162.5113 C.ar    1  UNL1        0.0188
     10 C         140.3169  139.7927  163.5550 C.ar    1  UNL1        0.0320
     11 N         142.6608  140.2363  160.3834 N.pl3   1  UNL1       -0.3034
     12 C         143.3767  141.5190  160.6867 C.3     1  UNL1        0.1082
     13 C         144.2430  142.1594  159.6429 C.3     1  UNL1        0.0939
     14 N         144.3934  141.5170  158.2958 N.3     1  UNL1       -0.2677
     15 C         143.6774  140.2342  157.9925 C.3     1  UNL1        0.0939
     16 C         142.8112  139.5939  159.0363 C.3     1  UNL1        0.1082
     17 C         145.2597  142.1574  157.2520 C.3     1  UNL1        0.1043
     18 C         145.8873  141.3171  156.1797 C.3     1  UNL1        0.1544
     19 O         147.3777  141.3077  156.0102 O.3     1  UNL1       -0.3805
     20 H         147.6761  142.1853  155.7243 H       1  UNL1        0.2105
     21 C         137.7180  137.8715  166.6863 C.3     1  UNL1        0.4187
     22 F         136.8517  137.2311  167.7301 F       1  UNL1       -0.1659
     23 F         137.4300  139.2207  167.2751 F       1  UNL1       -0.1659
     24 F         138.0060  136.5223  166.0975 F       1  UNL1       -0.1659
     25 N         139.9604  142.1076  164.6795 N.pl3   1  UNL1       -0.3290
     26 H         139.3674  142.7229  164.1907 H       1  UNL1        0.1471
     27 C         141.1188  142.6476  165.4645 C.3     1  UNL1        0.1145
     28 C         141.0681  142.2196  169.4097 C.ar    1  UNL1        0.2898
     29 C         141.9893  141.0480  169.5795 C.ar    1  UNL1        0.0752
     30 C         142.6203  140.4097  168.3778 C.ar    1  UNL1        0.0060
     31 C         142.3301  140.9429  167.0061 C.ar    1  UNL1       -0.0022
     32 C         141.4090  142.1144  166.8362 C.ar    1  UNL1        0.0035
     33 C         140.7780  142.7529  168.0380 C.ar    1  UNL1        0.0727
     34 O         140.4241  142.1341  171.9252 O.2     1  UNL1        0.0415
     35 N         140.4372  142.8580  170.6115 N.pl3   1  UNL1        0.0809
     36 O         139.8193  144.2203  170.4996 O.co2   1  UNL1       -0.5760
@<TRIPOS>UNITY_ATOM_ATTR
35 1
charge 1
36 1
charge -1
@<TRIPOS>BOND
     1    34    35    2
     2    35    36    1
     3    35    28    1
     4    28    29   ar
     5    29    30   ar
     6    30    31   ar
     7    31    32   ar
     8    32    27    1
     9    27    25    1
    10    25     1    1
    11     1     2   ar
    12     2     3   ar
    13     3    21    1
    14    21    22    1
    15    21    23    1
    16    21    24    1
    17     3     4   ar
    18     4     5   ar
    19     5     6   ar
    20     6     7   ar
    21     7     8   ar
    22     8    11    1
    23    11    12    1
    24    12    13    1
    25    13    14    1
    26    14    17    1
    27    17    18    1
    28    18    19    1
    29    14    15    1
    30    15    16    1
    31     8     9   ar
    32     9    10   ar
    33    32    33   ar
    34    33    28   ar
    35    10     1   ar
    36    10     5   ar
    37    16    11    1
    38    25    26    1
    39    19    20    1
@<TRIPOS>MOLECULE
*****
 36 39 0 0 0
SMALL
GASTEIGER

@<TRIPOS>ATOM
      1 C         138.7813  141.4713  164.6451 C.ar    1  UNL1        0.0463
      2 C         138.5070  140.3679  165.6234 C.ar    1  UNL1        0.0183
      3 C         138.3637  138.9552  165.1397 C.ar    1  UNL1        0.0741
      4 C         138.4947  138.6460  163.6778 C.ar    1  UNL1        0.0230
      5 C         138.7690  139.7495  162.6995 C.ar    1  UNL1        0.0825
      6 N         138.9000  139.4403  161.2376 N.ar    1  UNL1       -0.2425
      7 C         139.1744  140.5438  160.2593 C.ar    1  UNL1        0.1133
      8 C         139.3177  141.9564  160.7429 C.ar    1  UNL1        0.0674
      9 C         139.1867  142.2656  162.2048 C.ar    1  UNL1        0.0188
     10 C         138.9123  141.1622  163.1831 C.ar    1  UNL1        0.0320
     11 N         139.5920  143.0599  159.7645 N.pl3   1  UNL1       -0.3034
     12 C         139.2333  142.8865  158.3185 C.3     1  UNL1        0.1082
     13 C         139.5076  143.9900  157.3401 C.3     1  UNL1        0.0939
     14 N         140.1407  145.2669  157.8079 N.3     1  UNL1       -0.2677
     15 C         140.4995  145.4402  159.2541 C.3     1  UNL1        0.0939
     16 C         140.2251  144.3368  160.2323 C.3     1  UNL1        0.1082
     17 C         140.4150  146.3703  156.8296 C.3     1  UNL1        0.1043
     18 C         139.2759  147.1296  156.2167 C.3     1  UNL1        0.1544
     19 O         138.6942  148.3143  156.9297 O.3     1  UNL1       -0.3805
     20 H         138.2704  148.0210  157.7514 H       1  UNL1        0.2105
     21 C         138.0893  137.8517  166.1181 C.3     1  UNL1        0.4187
     22 F         137.8150  136.7484  167.0965 F       1  UNL1       -0.1659
     23 F         138.8990  136.9073  165.2800 F       1  UNL1       -0.1659
     24 F         137.2796  138.7962  166.9562 F       1  UNL1       -0.1659
     25 N         138.9246  142.8840  165.1287 N.pl3   1  UNL1       -0.3290
     26 H         138.1576  143.4996  165.0845 H       1  UNL1        0.1471
     27 C         140.2365  143.3587  165.6797 C.3     1  UNL1        0.1145
     28 C         141.0651  142.2340  169.3943 C.ar    1  UNL1        0.2898
     29 C         142.1307  141.2072  169.1485 C.ar    1  UNL1        0.0752
     30 C         142.5648  140.8976  167.7465 C.ar    1  UNL1        0.0060
     31 C         141.9334  141.6148  166.5903 C.ar    1  UNL1       -0.0022
     32 C         140.8679  142.6415  166.8360 C.ar    1  UNL1        0.0035
     33 C         140.4337  142.9512  168.2380 C.ar    1  UNL1        0.0727
     34 O         139.3333  143.2553  171.0397 O.2     1  UNL1        0.0415
     35 N         140.6311  142.5436  170.7963 N.pl3   1  UNL1        0.0809
     36 O         141.4947  142.1415  171.9549 O.co2   1  UNL1       -0.5760
@<TRIPOS>UNITY_ATOM_ATTR
35 1
charge 1
36 1
charge -1
@<TRIPOS>BOND
     1    34    35    2
     2    35    36    1
     3    35    28    1
     4    28    29   ar
     5    29    30   ar
     6    30    31   ar
     7    31    32   ar
     8    32    27    1
     9    27    25    1
    10    25     1    1
    11     1     2   ar
    12     2     3   ar
    13     3    21    1
    14    21    22    1
    15    21    23    1
    16    21    24    1
    17     3     4   ar
    18     4     5   ar
    19     5     6   ar
    20     6     7   ar
    21     7     8   ar
    22     8    11    1
    23    11    12    1
    24    12    13    1
    25    13    14    1
    26    14    17    1
    27    17    18    1
    28    18    19    1
    29    14    15    1
    30    15    16    1
    31     8     9   ar
    32     9    10   ar
    33    32    33   ar
    34    33    28   ar
    35    10     1   ar
    36    10     5   ar
    37    16    11    1
    38    25    26    1
    39    19    20    1
@<TRIPOS>MOLECULE
*****
 36 39 0 0 0
SMALL
GASTEIGER

@<TRIPOS>ATOM
      1 C         138.9324  140.5128  164.2467 C.ar    1  UNL1        0.0463
      2 C         138.1779  139.9160  165.3975 C.ar    1  UNL1        0.0183
      3 C         138.3591  138.4675  165.7426 C.ar    1  UNL1        0.0741
      4 C         139.2947  137.6159  164.9368 C.ar    1  UNL1        0.0230
      5 C         140.0492  138.2127  163.7859 C.ar    1  UNL1        0.0825
      6 N         140.9848  137.3611  162.9800 N.ar    1  UNL1       -0.2425
      7 C         141.7392  137.9580  161.8292 C.ar    1  UNL1        0.1133
      8 C         141.5580  139.4065  161.4841 C.ar    1  UNL1        0.0674
      9 C         140.6224  140.2581  162.2899 C.ar    1  UNL1        0.0188
     10 C         139.8680  139.6612  163.4408 C.ar    1  UNL1        0.0320
     11 N         142.3125  140.0033  160.3332 N.pl3   1  UNL1       -0.3034
     12 C         142.4492  139.2398  159.0493 C.3     1  UNL1        0.1082
     13 C         143.2037  139.8366  157.8984 C.3     1  UNL1        0.0939
     14 N         143.8214  141.1971  158.0313 N.3     1  UNL1       -0.2677
     15 C         143.6847  141.9606  159.3153 C.3     1  UNL1        0.0939
     16 C         142.9302  141.3637  160.4661 C.3     1  UNL1        0.1082
     17 C         144.5758  141.7939  156.8805 C.3     1  UNL1        0.1043
     18 C         145.8815  141.1952  156.4485 C.3     1  UNL1        0.1544
     19 O         145.9381  139.7663  155.9957 O.3     1  UNL1       -0.3805
     20 H         145.7308  139.1822  156.7419 H       1  UNL1        0.2105
     21 C         137.6046  137.8706  166.8936 C.3     1  UNL1        0.4187
     22 F         136.8502  137.2738  168.0445 F       1  UNL1       -0.1659
     23 F         137.5879  136.5436  166.1945 F       1  UNL1       -0.1659
     24 F         137.6214  139.1976  167.5926 F       1  UNL1       -0.1659
     25 N         138.7512  141.9613  163.9016 N.pl3   1  UNL1       -0.3290
     26 H         138.1610  142.2199  163.1572 H       1  UNL1        0.1471
     27 C         139.4691  143.0158  164.6906 C.3     1  UNL1        0.1145
     28 C         143.4156  142.9804  164.2736 C.ar    1  UNL1        0.2898
     29 C         143.8410  142.5297  165.6397 C.ar    1  UNL1        0.0752
     30 C         142.8090  142.2410  166.6893 C.ar    1  UNL1        0.0060
     31 C         141.3517  142.4030  166.3729 C.ar    1  UNL1       -0.0022
     32 C         140.9264  142.8537  165.0070 C.ar    1  UNL1        0.0035
     33 C         141.9583  143.1424  163.9573 C.ar    1  UNL1        0.0727
     34 O         145.5387  142.2764  162.9520 O.2     1  UNL1        0.0415
     35 N         144.4476  143.2691  163.2240 N.pl3   1  UNL1        0.0809
     36 O         144.3884  144.5504  162.4464 O.co2   1  UNL1       -0.5760
@<TRIPOS>UNITY_ATOM_ATTR
35 1
charge 1
36 1
charge -1
@<TRIPOS>BOND
     1    34    35    2
     2    35    36    1
     3    35    28    1
     4    28    29   ar
     5    29    30   ar
     6    30    31   ar
     7    31    32   ar
     8    32    27    1
     9    27    25    1
    10    25     1    1
    11     1     2   ar
    12     2     3   ar
    13     3    21    1
    14    21    22    1
    15    21    23    1
    16    21    24    1
    17     3     4   ar
    18     4     5   ar
    19     5     6   ar
    20     6     7   ar
    21     7     8   ar
    22     8    11    1
    23    11    12    1
    24    12    13    1
    25    13    14    1
    26    14    17    1
    27    17    18    1
    28    18    19    1
    29    14    15    1
    30    15    16    1
    31     8     9   ar
    32     9    10   ar
    33    32    33   ar
    34    33    28   ar
    35    10     1   ar
    36    10     5   ar
    37    16    11    1
    38    25    26    1
    39    19    20    1
@<TRIPOS>MOLECULE
*****
 36 39 0 0 0
SMALL
GASTEIGER

@<TRIPOS>ATOM
      1 C         139.5022  140.5736  164.7823 C.ar    1  UNL1        0.0463
      2 C         138.6417  139.9557  165.8441 C.ar    1  UNL1        0.0183
      3 C         138.4443  138.4692  165.8786 C.ar    1  UNL1        0.0741
      4 C         139.1075  137.6005  164.8512 C.ar    1  UNL1        0.0230
      5 C         139.9680  138.2184  163.7892 C.ar    1  UNL1        0.0825
      6 N         140.6312  137.3498  162.7618 N.ar    1  UNL1       -0.2425
      7 C         141.4917  137.9677  161.6999 C.ar    1  UNL1        0.1133
      8 C         141.6891  139.4543  161.6655 C.ar    1  UNL1        0.0674
      9 C         141.0260  140.3229  162.6929 C.ar    1  UNL1        0.0188
     10 C         140.1654  139.7050  163.7548 C.ar    1  UNL1        0.0320
     11 N         142.5497  140.0722  160.6035 N.pl3   1  UNL1       -0.3034
     12 C         142.4720  139.5735  159.1910 C.3     1  UNL1        0.1082
     13 C         143.3326  140.1914  158.1291 C.3     1  UNL1        0.0939
     14 N         144.2708  141.3080  158.4797 N.3     1  UNL1       -0.2677
     15 C         144.3485  141.8067  159.8923 C.3     1  UNL1        0.0939
     16 C         143.4879  141.1888  160.9542 C.3     1  UNL1        0.1082
     17 C         145.1314  141.9259  157.4178 C.3     1  UNL1        0.1043
     18 C         145.3678  141.1991  156.1272 C.3     1  UNL1        0.1544
     19 O         146.0279  139.8521  156.1349 O.3     1  UNL1       -0.3805
     20 H         146.9441  139.9428  156.4403 H       1  UNL1        0.2105
     21 C         137.5837  137.8513  166.9405 C.3     1  UNL1        0.4187
     22 F         136.7232  137.2334  168.0024 F       1  UNL1       -0.1659
     23 F         137.5595  139.1560  167.6801 F       1  UNL1       -0.1659
     24 F         137.6080  136.5465  166.2010 F       1  UNL1       -0.1659
     25 N         139.6996  142.0602  164.7478 N.pl3   1  UNL1       -0.3290
     26 H         139.0913  142.6254  164.2188 H       1  UNL1        0.1471
     27 C         140.8237  142.6856  165.5193 C.3     1  UNL1        0.1145
     28 C         142.0024  140.9001  168.8619 C.ar    1  UNL1        0.2898
     29 C         141.3376  141.7626  169.8935 C.ar    1  UNL1        0.0752
     30 C         140.5015  142.9327  169.4671 C.ar    1  UNL1        0.0060
     31 C         140.3302  143.2403  168.0090 C.ar    1  UNL1       -0.0022
     32 C         140.9950  142.3779  166.9774 C.ar    1  UNL1        0.0035
     33 C         141.8311  141.2078  167.4038 C.ar    1  UNL1        0.0727
     34 O         143.2548  138.6992  168.2814 O.2     1  UNL1        0.0415
     35 N         142.8385  139.7300  169.2883 N.pl3   1  UNL1        0.0809
     36 O         143.2582  139.5908  170.7216 O.co2   1  UNL1       -0.5760
@<TRIPOS>UNITY_ATOM_ATTR
35 1
charge 1
36 1
charge -1
@<TRIPOS>BOND
     1    34    35    2
     2    35    36    1
     3    35    28    1
     4    28    29   ar
     5    29    30   ar
     6    30    31   ar
     7    31    32   ar
     8    32    27    1
     9    27    25    1
    10    25     1    1
    11     1     2   ar
    12     2     3   ar
    13     3    21    1
    14    21    22    1
    15    21    23    1
    16    21    24    1
    17     3     4   ar
    18     4     5   ar
    19     5     6   ar
    20     6     7   ar
    21     7     8   ar
    22     8    11    1
    23    11    12    1
    24    12    13    1
    25    13    14    1
    26    14    17    1
    27    17    18    1
    28    18    19    1
    29    14    15    1
    30    15    16    1
    31     8     9   ar
    32     9    10   ar
    33    32    33   ar
    34    33    28   ar
    35    10     1   ar
    36    10     5   ar
    37    16    11    1
    38    25    26    1
    39    19    20    1
@<TRIPOS>MOLECULE
*****
 36 39 0 0 0
SMALL
GASTEIGER

@<TRIPOS>ATOM
      1 C         138.9557  139.9265  164.2483 C.ar    1  UNL1        0.0463
      2 C         138.5696  140.0146  165.6950 C.ar    1  UNL1        0.0183
      3 C         139.6138  139.8595  166.7607 C.ar    1  UNL1        0.0741
      4 C         141.0440  139.6163  166.3797 C.ar    1  UNL1        0.0230
      5 C         141.4301  139.5282  164.9328 C.ar    1  UNL1        0.0825
      6 N         142.8604  139.2850  164.5518 N.ar    1  UNL1       -0.2425
      7 C         143.2465  139.1969  163.1050 C.ar    1  UNL1        0.1133
      8 C         142.2023  139.3520  162.0393 C.ar    1  UNL1        0.0674
      9 C         140.7721  139.5952  162.4204 C.ar    1  UNL1        0.0188
     10 C         140.3860  139.6833  163.8671 C.ar    1  UNL1        0.0320
     11 N         142.5885  139.2639  160.5925 N.pl3   1  UNL1       -0.3034
     12 C         143.3101  140.4045  159.9381 C.3     1  UNL1        0.1082
     13 C         143.6962  140.3164  158.4913 C.3     1  UNL1        0.0939
     14 N         143.3608  139.0877  157.6990 N.3     1  UNL1       -0.2677
     15 C         142.6391  137.9471  158.3535 C.3     1  UNL1        0.0939
     16 C         142.2530  138.0352  159.8002 C.3     1  UNL1        0.1082
     17 C         143.7469  138.9996  156.2522 C.3     1  UNL1        0.1043
     18 C         144.7277  139.9777  155.6769 C.3     1  UNL1        0.1544
     19 O         146.1743  139.9072  156.0676 O.3     1  UNL1       -0.3805
     20 H         146.2656  140.1207  157.0094 H       1  UNL1        0.2105
     21 C         139.2276  139.9476  168.2075 C.3     1  UNL1        0.4187
     22 F         138.8414  140.0356  169.6542 F       1  UNL1       -0.1659
     23 F         140.4429  140.7831  168.4811 F       1  UNL1       -0.1659
     24 F         138.0123  139.1121  167.9340 F       1  UNL1       -0.1659
     25 N         137.9116  140.0816  163.1826 N.pl3   1  UNL1       -0.3290
     26 H         137.6502  139.3077  162.6331 H       1  UNL1        0.1471
     27 C         137.2656  141.4159  162.9540 C.3     1  UNL1        0.1145
     28 C         139.7003  144.4373  162.1210 C.ar    1  UNL1        0.2898
     29 C         139.6722  145.1899  163.4182 C.ar    1  UNL1        0.0752
     30 C         138.8419  144.6846  164.5607 C.ar    1  UNL1        0.0060
     31 C         138.0397  143.4266  164.4059 C.ar    1  UNL1       -0.0022
     32 C         138.0678  142.6739  163.1088 C.ar    1  UNL1        0.0035
     33 C         138.8981  143.1793  161.9662 C.ar    1  UNL1        0.0727
     34 O         139.8754  145.6561  159.8333 O.2     1  UNL1        0.0415
     35 N         140.5306  144.9426  160.9785 N.pl3   1  UNL1        0.0809
     36 O         142.0161  144.7345  160.9813 O.co2   1  UNL1       -0.5760
@<TRIPOS>UNITY_ATOM_ATTR
35 1
charge 1
36 1
charge -1
@<TRIPOS>BOND
     1    34    35    2
     2    35    36    1
     3    35    28    1
     4    28    29   ar
     5    29    30   ar
     6    30    31   ar
     7    31    32   ar
     8    32    27    1
     9    27    25    1
    10    25     1    1
    11     1     2   ar
    12     2     3   ar
    13     3    21    1
    14    21    22    1
    15    21    23    1
    16    21    24    1
    17     3     4   ar
    18     4     5   ar
    19     5     6   ar
    20     6     7   ar
    21     7     8   ar
    22     8    11    1
    23    11    12    1
    24    12    13    1
    25    13    14    1
    26    14    17    1
    27    17    18    1
    28    18    19    1
    29    14    15    1
    30    15    16    1
    31     8     9   ar
    32     9    10   ar
    33    32    33   ar
    34    33    28   ar
    35    10     1   ar
    36    10     5   ar
    37    16    11    1
    38    25    26    1
    39    19    20    1
@<TRIPOS>MOLECULE
*****
 36 39 0 0 0
SMALL
GASTEIGER

@<TRIPOS>ATOM
      1 C         140.7920  141.5331  163.7067 C.ar    1  UNL1        0.0463
      2 C         140.2342  142.5434  164.6648 C.ar    1  UNL1        0.0183
      3 C         139.0627  143.3902  164.2641 C.ar    1  UNL1        0.0741
      4 C         138.4490  143.2266  162.9053 C.ar    1  UNL1        0.0230
      5 C         139.0068  142.2163  161.9470 C.ar    1  UNL1        0.0825
      6 N         138.3931  142.0528  160.5881 N.ar    1  UNL1       -0.2425
      7 C         138.9509  141.0425  159.6300 C.ar    1  UNL1        0.1133
      8 C         140.1224  140.1957  160.0307 C.ar    1  UNL1        0.0674
      9 C         140.7361  140.3592  161.3896 C.ar    1  UNL1        0.0188
     10 C         140.1783  141.3695  162.3477 C.ar    1  UNL1        0.0320
     11 N         140.6802  139.1854  159.0725 N.pl3   1  UNL1       -0.3034
     12 C         142.0921  138.7035  159.2283 C.3     1  UNL1        0.1082
     13 C         142.6499  137.6932  158.2701 C.3     1  UNL1        0.0939
     14 N         141.7957  137.1648  157.1560 N.3     1  UNL1       -0.2677
     15 C         140.3838  137.6467  157.0002 C.3     1  UNL1        0.0939
     16 C         139.8261  138.6569  157.9584 C.3     1  UNL1        0.1082
     17 C         142.3535  136.1545  156.1978 C.3     1  UNL1        0.1043
     18 C         143.8298  135.8923  156.1596 C.3     1  UNL1        0.1544
     19 O         144.7412  136.8384  155.4354 O.3     1  UNL1       -0.3805
     20 H         144.5469  136.8110  154.4854 H       1  UNL1        0.2105
     21 C         138.5049  144.4005  165.2224 C.3     1  UNL1        0.4187
     22 F         137.9472  145.4108  166.1806 F       1  UNL1       -0.1659
     23 F         137.4214  144.7340  164.2402 F       1  UNL1       -0.1659
     24 F         139.5884  144.0671  166.2046 F       1  UNL1       -0.1659
     25 N         141.9635  140.6864  164.1074 N.pl3   1  UNL1       -0.3290
     26 H         142.8701  140.9273  163.8086 H       1  UNL1        0.1471
     27 C         141.7537  139.4725  164.9633 C.3     1  UNL1        0.1145
     28 C         139.4423  139.9259  168.1573 C.ar    1  UNL1        0.2898
     29 C         138.1898  139.2382  167.7007 C.ar    1  UNL1        0.0752
     30 C         138.1253  138.6287  166.3316 C.ar    1  UNL1        0.0060
     31 C         139.3133  138.7068  165.4192 C.ar    1  UNL1       -0.0022
     32 C         140.5658  139.3944  165.8757 C.ar    1  UNL1        0.0035
     33 C         140.6303  140.0040  167.2448 C.ar    1  UNL1        0.0727
     34 O         139.3042  139.6772  170.7397 O.2     1  UNL1        0.0415
     35 N         139.5067  140.5354  169.5263 N.pl3   1  UNL1        0.0809
     36 O         139.7737  142.0033  169.6820 O.co2   1  UNL1       -0.5760
@<TRIPOS>UNITY_ATOM_ATTR
35 1
charge 1
36 1
charge -1
@<TRIPOS>BOND
     1    34    35    2
     2    35    36    1
     3    35    28    1
     4    28    29   ar
     5    29    30   ar
     6    30    31   ar
     7    31    32   ar
     8    32    27    1
     9    27    25    1
    10    25     1    1
    11     1     2   ar
    12     2     3   ar
    13     3    21    1
    14    21    22    1
    15    21    23    1
    16    21    24    1
    17     3     4   ar
    18     4     5   ar
    19     5     6   ar
    20     6     7   ar
    21     7     8   ar
    22     8    11    1
    23    11    12    1
    24    12    13    1
    25    13    14    1
    26    14    17    1
    27    17    18    1
    28    18    19    1
    29    14    15    1
    30    15    16    1
    31     8     9   ar
    32     9    10   ar
    33    32    33   ar
    34    33    28   ar
    35    10     1   ar
    36    10     5   ar
    37    16    11    1
    38    25    26    1
    39    19    20    1
@<TRIPOS>MOLECULE
*****
 36 39 0 0 0
SMALL
GASTEIGER

@<TRIPOS>ATOM
      1 C         140.5268  142.8839  165.1938 C.ar    1  UNL1        0.0463
      2 C         140.9350  142.3916  166.5506 C.ar    1  UNL1        0.0183
      3 C         142.3609  142.0053  166.8106 C.ar    1  UNL1        0.0741
      4 C         143.3786  142.1113  165.7139 C.ar    1  UNL1        0.0230
      5 C         142.9704  142.6037  164.3570 C.ar    1  UNL1        0.0825
      6 N         143.9882  142.7097  163.2602 N.ar    1  UNL1       -0.2425
      7 C         143.5800  143.2020  161.9034 C.ar    1  UNL1        0.1133
      8 C         142.1541  143.5884  161.6434 C.ar    1  UNL1        0.0674
      9 C         141.1364  143.4823  162.7402 C.ar    1  UNL1        0.0188
     10 C         141.5446  142.9900  164.0970 C.ar    1  UNL1        0.0320
     11 N         141.7460  144.0807  160.2865 N.pl3   1  UNL1       -0.3034
     12 C         140.6265  145.0702  160.1531 C.3     1  UNL1        0.1082
     13 C         140.2184  145.5625  158.7962 C.3     1  UNL1        0.0939
     14 N         140.9297  145.0654  157.5728 N.3     1  UNL1       -0.2677
     15 C         142.0492  144.0759  157.7062 C.3     1  UNL1        0.0939
     16 C         142.4573  143.5836  159.0630 C.3     1  UNL1        0.1082
     17 C         140.5216  145.5577  156.2160 C.3     1  UNL1        0.1043
     18 C         139.9317  146.9282  156.0616 C.3     1  UNL1        0.1544
     19 O         138.4623  147.0877  155.8054 O.3     1  UNL1       -0.3805
     20 H         138.2437  146.7180  154.9357 H       1  UNL1        0.2105
     21 C         142.7690  141.5129  168.1675 C.3     1  UNL1        0.4187
     22 F         143.1772  141.0206  169.5243 F       1  UNL1       -0.1659
     23 F         141.7596  140.4077  168.0702 F       1  UNL1       -0.1659
     24 F         143.7784  142.6181  168.2649 F       1  UNL1       -0.1659
     25 N         139.1009  143.2703  164.9338 N.pl3   1  UNL1       -0.3290
     26 H         138.8058  144.1966  165.0891 H       1  UNL1        0.1471
     27 C         138.1248  142.2454  164.4372 C.3     1  UNL1        0.1145
     28 C         139.3418  138.5979  163.4548 C.ar    1  UNL1        0.2898
     29 C         139.1106  137.8653  164.7433 C.ar    1  UNL1        0.0752
     30 C         138.5508  138.5928  165.9296 C.ar    1  UNL1        0.0060
     31 C         138.2222  140.0528  165.8276 C.ar    1  UNL1       -0.0022
     32 C         138.4534  140.7853  164.5392 C.ar    1  UNL1        0.0035
     33 C         139.0132  140.0579  163.3528 C.ar    1  UNL1        0.0727
     34 O         141.1644  137.0727  162.4053 O.2     1  UNL1        0.0415
     35 N         139.9015  137.8704  162.2685 N.pl3   1  UNL1        0.0809
     36 O         139.1984  137.9407  160.9454 O.co2   1  UNL1       -0.5760
@<TRIPOS>UNITY_ATOM_ATTR
35 1
charge 1
36 1
charge -1
@<TRIPOS>BOND
     1    34    35    2
     2    35    36    1
     3    35    28    1
     4    28    29   ar
     5    29    30   ar
     6    30    31   ar
     7    31    32   ar
     8    32    27    1
     9    27    25    1
    10    25     1    1
    11     1     2   ar
    12     2     3   ar
    13     3    21    1
    14    21    22    1
    15    21    23    1
    16    21    24    1
    17     3     4   ar
    18     4     5   ar
    19     5     6   ar
    20     6     7   ar
    21     7     8   ar
    22     8    11    1
    23    11    12    1
    24    12    13    1
    25    13    14    1
    26    14    17    1
    27    17    18    1
    28    18    19    1
    29    14    15    1
    30    15    16    1
    31     8     9   ar
    32     9    10   ar
    33    32    33   ar
    34    33    28   ar
    35    10     1   ar
    36    10     5   ar
    37    16    11    1
    38    25    26    1
    39    19    20    1
@<TRIPOS>MOLECULE
*****
 36 39 0 0 0
SMALL
GASTEIGER

@<TRIPOS>ATOM
      1 C         140.7934  140.0347  165.0944 C.ar    1  UNL1        0.0463
      2 C         139.9253  139.7788  166.2906 C.ar    1  UNL1        0.0183
      3 C         138.7370  138.8708  166.1745 C.ar    1  UNL1        0.0741
      4 C         138.4169  138.2185  164.8622 C.ar    1  UNL1        0.0230
      5 C         139.2850  138.4744  163.6659 C.ar    1  UNL1        0.0825
      6 N         138.9649  137.8221  162.3537 N.ar    1  UNL1       -0.2425
      7 C         139.8330  138.0780  161.1575 C.ar    1  UNL1        0.1133
      8 C         141.0213  138.9860  161.2736 C.ar    1  UNL1        0.0674
      9 C         141.3414  139.6383  162.5859 C.ar    1  UNL1        0.0188
     10 C         140.4733  139.3824  163.7820 C.ar    1  UNL1        0.0320
     11 N         141.8894  139.2419  160.0773 N.pl3   1  UNL1       -0.3034
     12 C         141.4840  138.7195  158.7310 C.3     1  UNL1        0.1082
     13 C         142.3522  138.9753  157.5347 C.3     1  UNL1        0.0939
     14 N         143.6257  139.7535  157.6849 N.3     1  UNL1       -0.2677
     15 C         144.0310  140.2759  159.0314 C.3     1  UNL1        0.0939
     16 C         143.1629  140.0201  160.2275 C.3     1  UNL1        0.1082
     17 C         144.4938  140.0094  156.4887 C.3     1  UNL1        0.1043
     18 C         144.4948  139.0422  155.3422 C.3     1  UNL1        0.1544
     19 O         145.0323  137.6547  155.5319 O.3     1  UNL1       -0.3805
     20 H         145.9851  137.6983  155.7082 H       1  UNL1        0.2105
     21 C         137.8689  138.6149  167.3707 C.3     1  UNL1        0.4187
     22 F         137.0008  138.3592  168.5669 F       1  UNL1       -0.1659
     23 F         137.2236  137.4646  166.6565 F       1  UNL1       -0.1659
     24 F         138.5142  139.7653  168.0850 F       1  UNL1       -0.1659
     25 N         141.9817  140.9427  165.2105 N.pl3   1  UNL1       -0.3290
     26 H         142.8602  140.6488  164.8774 H       1  UNL1        0.1471
     27 C         141.8313  142.2986  165.8340 C.3     1  UNL1        0.1145
     28 C         141.1392  143.2101  169.6341 C.ar    1  UNL1        0.2898
     29 C         142.4445  142.8195  170.2615 C.ar    1  UNL1        0.0752
     30 C         143.5454  142.2554  169.4132 C.ar    1  UNL1        0.0060
     31 C         143.3410  142.0817  167.9373 C.ar    1  UNL1       -0.0022
     32 C         142.0357  142.4723  167.3099 C.ar    1  UNL1        0.0035
     33 C         140.9348  143.0365  168.1582 C.ar    1  UNL1        0.0727
     34 O         139.7195  145.2387  170.4209 O.2     1  UNL1        0.0415
     35 N         140.0383  143.7743  170.4824 N.pl3   1  UNL1        0.0809
     36 O         139.2562  142.8740  171.3924 O.co2   1  UNL1       -0.5760
@<TRIPOS>UNITY_ATOM_ATTR
35 1
charge 1
36 1
charge -1
@<TRIPOS>BOND
     1    34    35    2
     2    35    36    1
     3    35    28    1
     4    28    29   ar
     5    29    30   ar
     6    30    31   ar
     7    31    32   ar
     8    32    27    1
     9    27    25    1
    10    25     1    1
    11     1     2   ar
    12     2     3   ar
    13     3    21    1
    14    21    22    1
    15    21    23    1
    16    21    24    1
    17     3     4   ar
    18     4     5   ar
    19     5     6   ar
    20     6     7   ar
    21     7     8   ar
    22     8    11    1
    23    11    12    1
    24    12    13    1
    25    13    14    1
    26    14    17    1
    27    17    18    1
    28    18    19    1
    29    14    15    1
    30    15    16    1
    31     8     9   ar
    32     9    10   ar
    33    32    33   ar
    34    33    28   ar
    35    10     1   ar
    36    10     5   ar
    37    16    11    1
    38    25    26    1
    39    19    20    1
@<TRIPOS>MOLECULE
*****
 36 39 0 0 0
SMALL
GASTEIGER

@<TRIPOS>ATOM
      1 C         141.4161  140.1315  165.8816 C.ar    1  UNL1        0.0463
      2 C         140.8101  140.3011  167.2431 C.ar    1  UNL1        0.0183
      3 C         139.4282  139.7865  167.5184 C.ar    1  UNL1        0.0741
      4 C         138.6525  139.1024  166.4321 C.ar    1  UNL1        0.0230
      5 C         139.2585  138.9328  165.0704 C.ar    1  UNL1        0.0825
      6 N         138.4828  138.2486  163.9841 N.ar    1  UNL1       -0.2425
      7 C         139.0888  138.0791  162.6226 C.ar    1  UNL1        0.1133
      8 C         140.4707  138.5936  162.3473 C.ar    1  UNL1        0.0674
      9 C         141.2464  139.2778  163.4336 C.ar    1  UNL1        0.0188
     10 C         140.6404  139.4473  164.7952 C.ar    1  UNL1        0.0320
     11 N         141.0767  138.4240  160.9857 N.pl3   1  UNL1       -0.3034
     12 C         140.3536  138.9332  159.7742 C.3     1  UNL1        0.1082
     13 C         140.9597  138.7636  158.4125 C.3     1  UNL1        0.0939
     14 N         142.2888  138.0848  158.2625 N.3     1  UNL1       -0.2677
     15 C         143.0120  137.5756  159.4741 C.3     1  UNL1        0.0939
     16 C         142.4059  137.7452  160.8356 C.3     1  UNL1        0.1082
     17 C         142.8949  137.9151  156.9009 C.3     1  UNL1        0.1043
     18 C         143.3357  136.5575  156.4401 C.3     1  UNL1        0.1544
     19 O         144.3611  136.4309  155.3525 O.3     1  UNL1       -0.3805
     20 H         143.9953  136.7734  154.5219 H       1  UNL1        0.2105
     21 C         138.8222  139.9561  168.8800 C.3     1  UNL1        0.4187
     22 F         138.2161  140.1257  170.2416 F       1  UNL1       -0.1659
     23 F         139.9823  140.8142  169.2895 F       1  UNL1       -0.1659
     24 F         137.6621  139.0981  168.4705 F       1  UNL1       -0.1659
     25 N         142.7980  140.6461  165.6063 N.pl3   1  UNL1       -0.3290
     26 H         143.4802  140.0460  165.2272 H       1  UNL1        0.1471
     27 C         143.1403  142.0748  165.9086 C.3     1  UNL1        0.1145
     28 C         140.7005  144.4738  163.8980 C.ar    1  UNL1        0.2898
     29 C         141.6878  145.3589  163.1966 C.ar    1  UNL1        0.0752
     30 C         143.1591  145.1493  163.3991 C.ar    1  UNL1        0.0060
     31 C         143.6433  144.0546  164.3032 C.ar    1  UNL1       -0.0022
     32 C         142.6561  143.1695  165.0046 C.ar    1  UNL1        0.0035
     33 C         141.1847  143.3791  164.8020 C.ar    1  UNL1        0.0727
     34 O         138.2500  144.1441  164.6957 O.2     1  UNL1        0.0415
     35 N         139.2291  144.6834  163.6955 N.pl3   1  UNL1        0.0809
     36 O         138.7368  145.4324  162.4927 O.co2   1  UNL1       -0.5760
@<TRIPOS>UNITY_ATOM_ATTR
35 1
charge 1
36 1
charge -1
@<TRIPOS>BOND
     1    34    35    2
     2    35    36    1
     3    35    28    1
     4    28    29   ar
     5    29    30   ar
     6    30    31   ar
     7    31    32   ar
     8    32    27    1
     9    27    25    1
    10    25     1    1
    11     1     2   ar
    12     2     3   ar
    13     3    21    1
    14    21    22    1
    15    21    23    1
    16    21    24    1
    17     3     4   ar
    18     4     5   ar
    19     5     6   ar
    20     6     7   ar
    21     7     8   ar
    22     8    11    1
    23    11    12    1
    24    12    13    1
    25    13    14    1
    26    14    17    1
    27    17    18    1
    28    18    19    1
    29    14    15    1
    30    15    16    1
    31     8     9   ar
    32     9    10   ar
    33    32    33   ar
    34    33    28   ar
    35    10     1   ar
    36    10     5   ar
    37    16    11    1
    38    25    26    1
    39    19    20    1
