@<TRIPOS>MOLECULE
*****
 31 34 0 0 0
SMALL
GASTEIGER

@<TRIPOS>ATOM
      1 N         142.6786  140.1863  158.9728 N.am    1  UNL1       -0.2756
      2 C         141.3055  140.7895  158.9390 C.3     1  UNL1        0.1151
      3 C         143.1198  139.3926  160.1666 C.2     1  UNL1        0.2505
      4 O         144.4928  138.7894  160.2004 O.2     1  UNL1       -0.2699
      5 C         147.5198  141.9487  154.4224 C.ar    1  UNL1       -0.0065
      6 C         147.7026  142.7580  155.6720 C.ar    1  UNL1       -0.0033
      7 C         146.7709  142.5673  156.8321 C.ar    1  UNL1       -0.0048
      8 C         145.6564  141.5675  156.7424 C.ar    1  UNL1       -0.0245
      9 C         145.4736  140.7582  155.4928 C.ar    1  UNL1       -0.0263
     10 C         146.4053  140.9488  154.3328 C.ar    1  UNL1       -0.0075
     11 C         144.3591  139.7583  155.4031 C.3     1  UNL1        0.0277
     12 C         143.4274  139.5676  156.5631 C.3     1  UNL1        0.0248
     13 C         143.6102  140.3769  157.8128 C.3     1  UNL1        0.0804
     14 C         144.7247  141.3768  157.9024 C.3     1  UNL1        0.0458
     15 C         148.4515  142.1393  153.2624 C.3     1  UNL1        0.0992
     16 C         150.5888  143.6059  153.0868 C.3     1  UNL1        0.0899
     17 N         149.9197  142.3296  153.5031 N.3     1  UNL1       -0.2665
     18 C         150.7190  141.2434  154.1601 C.3     1  UNL1        0.0899
     19 C         142.1881  139.2019  161.3266 C.ar    1  UNL1        0.0727
     20 C         142.1680  140.2017  162.4446 C.ar    1  UNL1        0.0076
     21 C         141.2363  140.0111  163.6046 C.ar    1  UNL1        0.0193
     22 C         140.3248  138.8207  163.6466 C.ar    1  UNL1        0.0813
     23 N         140.3449  137.8208  162.5287 N.ar    1  UNL1       -0.2437
     24 C         141.2766  138.0115  161.3687 C.ar    1  UNL1        0.1033
     25 C         139.3931  138.6300  164.8066 C.ar    1  UNL1        0.0178
     26 C         139.0347  139.7955  165.6802 C.ar    1  UNL1        0.0038
     27 C         138.1030  139.6049  166.8402 C.ar    1  UNL1        0.0297
     28 C         137.5297  138.2488  167.1267 C.ar    1  UNL1        0.1401
     29 F         136.5980  138.0581  168.2867 F       1  UNL1       -0.2042
     30 C         137.8881  137.0832  166.2531 C.ar    1  UNL1        0.0297
     31 C         138.8198  137.2739  165.0931 C.ar    1  UNL1        0.0038
@<TRIPOS>BOND
     1    16    17    1
     2    17    18    1
     3    17    15    1
     4    15     5    1
     5     5     6   ar
     6     6     7   ar
     7     7     8   ar
     8     8     9   ar
     9     9    10   ar
    10     9    11    1
    11    11    12    1
    12    12    13    1
    13    13     1    1
    14     1     2    1
    15     1     3   am
    16     3     4    2
    17     3    19    1
    18    19    20   ar
    19    20    21   ar
    20    21    22   ar
    21    22    25    1
    22    25    26   ar
    23    26    27   ar
    24    27    28   ar
    25    28    29    1
    26    28    30   ar
    27    30    31   ar
    28    22    23   ar
    29    23    24   ar
    30    13    14    1
    31    10     5   ar
    32    24    19   ar
    33    14     8    1
    34    31    25   ar
@<TRIPOS>MOLECULE
*****
 31 34 0 0 0
SMALL
GASTEIGER

@<TRIPOS>ATOM
      1 N         141.4227  144.1243  160.7815 N.am    1  UNL1       -0.2756
      2 C         142.6764  144.2693  161.5923 C.3     1  UNL1        0.1151
      3 C         140.1811  143.5685  161.4134 C.2     1  UNL1        0.2505
      4 O         138.9274  143.4235  160.6026 O.2     1  UNL1       -0.2699
      5 C         140.4105  146.8139  154.5372 C.ar    1  UNL1       -0.0065
      6 C         139.4580  147.4496  155.5060 C.ar    1  UNL1       -0.0033
      7 C         139.4699  147.0388  156.9486 C.ar    1  UNL1       -0.0048
      8 C         140.4344  145.9923  157.4224 C.ar    1  UNL1       -0.0245
      9 C         141.3869  145.3566  156.4537 C.ar    1  UNL1       -0.0263
     10 C         141.3750  145.7674  155.0111 C.ar    1  UNL1       -0.0075
     11 C         142.3515  144.3101  156.9275 C.3     1  UNL1        0.0277
     12 C         142.3634  143.8993  158.3702 C.3     1  UNL1        0.0248
     13 C         141.4108  144.5351  159.3389 C.3     1  UNL1        0.0804
     14 C         140.4463  145.5815  158.8650 C.3     1  UNL1        0.0458
     15 C         140.3986  147.2247  153.0946 C.3     1  UNL1        0.0992
     16 C         142.3385  148.5348  151.9675 C.3     1  UNL1        0.0899
     17 N         141.0186  148.5261  152.6802 N.3     1  UNL1       -0.2665
     18 C         140.3188  149.8190  152.9786 C.3     1  UNL1        0.0899
     19 C         140.1930  143.1577  162.8560 C.ar    1  UNL1        0.0727
     20 C         139.8262  144.1483  163.9209 C.ar    1  UNL1        0.0076
     21 C         139.8381  143.7375  165.3635 C.ar    1  UNL1        0.0193
     22 C         140.2169  142.3361  165.7412 C.ar    1  UNL1        0.0813
     23 N         140.5837  141.3456  164.6762 N.ar    1  UNL1       -0.2437
     24 C         140.5718  141.7563  163.2336 C.ar    1  UNL1        0.1033
     25 C         140.2288  141.9254  167.1838 C.ar    1  UNL1        0.0178
     26 C         139.8826  140.5167  167.5654 C.ar    1  UNL1        0.0038
     27 C         139.8945  140.1059  169.0080 C.ar    1  UNL1        0.0297
     28 C         140.2527  141.1038  170.0690 C.ar    1  UNL1        0.1401
     29 F         140.2646  140.6930  171.5116 F       1  UNL1       -0.2042
     30 C         140.5989  142.5125  169.6874 C.ar    1  UNL1        0.0297
     31 C         140.5869  142.9233  168.2448 C.ar    1  UNL1        0.0038
@<TRIPOS>BOND
     1    16    17    1
     2    17    18    1
     3    17    15    1
     4    15     5    1
     5     5     6   ar
     6     6     7   ar
     7     7     8   ar
     8     8     9   ar
     9     9    10   ar
    10     9    11    1
    11    11    12    1
    12    12    13    1
    13    13     1    1
    14     1     2    1
    15     1     3   am
    16     3     4    2
    17     3    19    1
    18    19    20   ar
    19    20    21   ar
    20    21    22   ar
    21    22    25    1
    22    25    26   ar
    23    26    27   ar
    24    27    28   ar
    25    28    29    1
    26    28    30   ar
    27    30    31   ar
    28    22    23   ar
    29    23    24   ar
    30    13    14    1
    31    10     5   ar
    32    24    19   ar
    33    14     8    1
    34    31    25   ar
@<TRIPOS>MOLECULE
*****
 31 34 0 0 0
SMALL
GASTEIGER

@<TRIPOS>ATOM
      1 N         141.6718  139.0865  160.2535 N.am    1  UNL1       -0.2756
      2 C         142.6869  140.1844  160.3730 C.3     1  UNL1        0.1151
      3 C         140.8467  138.6951  161.4435 C.2     1  UNL1        0.2505
      4 O         139.8317  137.5973  161.3239 O.2     1  UNL1       -0.2699
      5 C         142.0609  135.5351  154.3810 C.ar    1  UNL1       -0.0065
      6 C         143.4002  135.5159  155.0562 C.ar    1  UNL1       -0.0033
      7 C         143.5903  136.2223  156.3657 C.ar    1  UNL1       -0.0048
      8 C         142.4410  136.9480  157.0001 C.ar    1  UNL1       -0.0245
      9 C         141.1017  136.9672  156.3250 C.ar    1  UNL1       -0.0263
     10 C         140.9117  136.2608  155.0154 C.ar    1  UNL1       -0.0075
     11 C         139.9523  137.6929  156.9594 C.3     1  UNL1        0.0277
     12 C         140.1423  138.3993  158.2689 C.3     1  UNL1        0.0248
     13 C         141.4817  138.3801  158.9440 C.3     1  UNL1        0.0804
     14 C         142.6310  137.6544  158.3096 C.3     1  UNL1        0.0458
     15 C         141.8709  134.8287  153.0715 C.3     1  UNL1        0.0992
     16 C         140.5665  132.7611  152.1921 C.3     1  UNL1        0.0899
     17 N         141.6541  133.3447  153.0444 N.3     1  UNL1       -0.2665
     18 C         142.5248  132.4443  153.8698 C.3     1  UNL1        0.0899
     19 C         141.0368  139.4015  162.7530 C.ar    1  UNL1        0.0727
     20 C         142.0322  138.8823  163.7477 C.ar    1  UNL1        0.0076
     21 C         142.2222  139.5888  165.0573 C.ar    1  UNL1        0.0193
     22 C         141.4168  140.8144  165.3720 C.ar    1  UNL1        0.0813
     23 N         140.4214  141.3336  164.3773 N.ar    1  UNL1       -0.2437
     24 C         140.2314  140.6272  163.0678 C.ar    1  UNL1        0.1033
     25 C         141.6069  141.5208  166.6816 C.ar    1  UNL1        0.0178
     26 C         140.4382  142.1740  167.3579 C.ar    1  UNL1        0.0038
     27 C         140.6282  142.8805  168.6674 C.ar    1  UNL1        0.0297
     28 C         141.9869  142.9337  169.3006 C.ar    1  UNL1        0.1401
     29 F         142.1769  143.6401  170.6101 F       1  UNL1       -0.2042
     30 C         143.1556  142.2805  168.6243 C.ar    1  UNL1        0.0297
     31 C         142.9656  141.5740  167.3148 C.ar    1  UNL1        0.0038
@<TRIPOS>BOND
     1    16    17    1
     2    17    18    1
     3    17    15    1
     4    15     5    1
     5     5     6   ar
     6     6     7   ar
     7     7     8   ar
     8     8     9   ar
     9     9    10   ar
    10     9    11    1
    11    11    12    1
    12    12    13    1
    13    13     1    1
    14     1     2    1
    15     1     3   am
    16     3     4    2
    17     3    19    1
    18    19    20   ar
    19    20    21   ar
    20    21    22   ar
    21    22    25    1
    22    25    26   ar
    23    26    27   ar
    24    27    28   ar
    25    28    29    1
    26    28    30   ar
    27    30    31   ar
    28    22    23   ar
    29    23    24   ar
    30    13    14    1
    31    10     5   ar
    32    24    19   ar
    33    14     8    1
    34    31    25   ar
@<TRIPOS>MOLECULE
*****
 31 34 0 0 0
SMALL
GASTEIGER

@<TRIPOS>ATOM
      1 N         139.9709  144.8016  157.1582 N.am    1  UNL1       -0.2756
      2 C         138.9604  143.7052  156.9938 C.3     1  UNL1        0.1151
      3 C         141.0135  144.7058  158.2324 C.2     1  UNL1        0.2505
      4 O         142.0239  145.8021  158.3968 O.2     1  UNL1       -0.2699
      5 C         139.1652  150.8333  153.9615 C.ar    1  UNL1       -0.0065
      6 C         138.5201  150.9042  155.3138 C.ar    1  UNL1       -0.0033
      7 C         138.5522  149.7121  156.2236 C.ar    1  UNL1       -0.0048
      8 C         139.2294  148.4490  155.7811 C.ar    1  UNL1       -0.0245
      9 C         139.8745  148.3780  154.4288 C.ar    1  UNL1       -0.0263
     10 C         139.8424  149.5701  153.5190 C.ar    1  UNL1       -0.0075
     11 C         140.5518  147.1148  153.9862 C.3     1  UNL1        0.0277
     12 C         140.5839  145.9227  154.8960 C.3     1  UNL1        0.0248
     13 C         139.9388  145.9937  156.2484 C.3     1  UNL1        0.0804
     14 C         139.2616  147.2568  156.6909 C.3     1  UNL1        0.0458
     15 C         139.1330  152.0254  153.0517 C.3     1  UNL1        0.0992
     16 C         139.3016  154.5323  153.7126 C.3     1  UNL1        0.0899
     17 N         139.9657  153.2324  153.3673 N.3     1  UNL1       -0.2665
     18 C         141.4626  153.1396  153.3377 C.3     1  UNL1        0.0899
     19 C         141.0456  143.5136  159.1422 C.ar    1  UNL1        0.0727
     20 C         141.8530  142.3062  158.7681 C.ar    1  UNL1        0.0076
     21 C         141.8852  141.1140  159.6779 C.ar    1  UNL1        0.0193
     22 C         141.1099  141.1293  160.9618 C.ar    1  UNL1        0.0813
     23 N         140.3024  142.3368  161.3360 N.ar    1  UNL1       -0.2437
     24 C         140.2703  143.5289  160.4262 C.ar    1  UNL1        0.1033
     25 C         141.1420  139.9372  161.8716 C.ar    1  UNL1        0.0178
     26 C         142.3195  139.7135  162.7735 C.ar    1  UNL1        0.0038
     27 C         142.3517  138.5213  163.6833 C.ar    1  UNL1        0.0297
     28 C         141.2063  137.5529  163.6913 C.ar    1  UNL1        0.1401
     29 F         141.2384  136.3607  164.6011 F       1  UNL1       -0.2042
     30 C         140.0287  137.7766  162.7895 C.ar    1  UNL1        0.0297
     31 C         139.9966  138.9687  161.8796 C.ar    1  UNL1        0.0038
@<TRIPOS>BOND
     1    16    17    1
     2    17    18    1
     3    17    15    1
     4    15     5    1
     5     5     6   ar
     6     6     7   ar
     7     7     8   ar
     8     8     9   ar
     9     9    10   ar
    10     9    11    1
    11    11    12    1
    12    12    13    1
    13    13     1    1
    14     1     2    1
    15     1     3   am
    16     3     4    2
    17     3    19    1
    18    19    20   ar
    19    20    21   ar
    20    21    22   ar
    21    22    25    1
    22    25    26   ar
    23    26    27   ar
    24    27    28   ar
    25    28    29    1
    26    28    30   ar
    27    30    31   ar
    28    22    23   ar
    29    23    24   ar
    30    13    14    1
    31    10     5   ar
    32    24    19   ar
    33    14     8    1
    34    31    25   ar
@<TRIPOS>MOLECULE
*****
 31 34 0 0 0
SMALL
GASTEIGER

@<TRIPOS>ATOM
      1 N         140.8530  139.0525  162.3875 N.am    1  UNL1       -0.2756
      2 C         140.8394  137.5526  162.3992 C.3     1  UNL1        0.1151
      3 C         140.9899  139.7913  161.0893 C.2     1  UNL1        0.2505
      4 O         141.0034  141.2911  161.0776 O.2     1  UNL1       -0.2699
      5 C         141.5916  142.4958  168.2908 C.ar    1  UNL1       -0.0065
      6 C         142.9472  142.1333  167.7609 C.ar    1  UNL1       -0.0033
      7 C         143.0706  141.3722  166.4742 C.ar    1  UNL1       -0.0048
      8 C         141.8384  140.9735  165.7175 C.ar    1  UNL1       -0.0245
      9 C         140.4828  141.3360  166.2474 C.ar    1  UNL1       -0.0263
     10 C         140.3594  142.0972  167.5340 C.ar    1  UNL1       -0.0075
     11 C         139.2504  140.9374  165.4907 C.3     1  UNL1        0.0277
     12 C         139.3738  140.1762  164.2041 C.3     1  UNL1        0.0248
     13 C         140.7296  139.8137  163.6742 C.3     1  UNL1        0.0804
     14 C         141.9618  140.2124  164.4309 C.3     1  UNL1        0.0458
     15 C         141.4682  143.2570  169.5774 C.3     1  UNL1        0.0992
     16 C         141.2430  141.5156  171.4923 C.3     1  UNL1        0.0899
     17 N         140.6894  142.6766  170.7205 N.3     1  UNL1       -0.2665
     18 C         139.3570  143.2571  171.0918 C.3     1  UNL1        0.0899
     19 C         141.1133  139.0301  159.8026 C.ar    1  UNL1        0.0727
     20 C         142.4550  138.5360  159.3493 C.ar    1  UNL1        0.0076
     21 C         142.5784  137.7748  158.0627 C.ar    1  UNL1        0.0193
     22 C         141.3601  137.5078  157.2294 C.ar    1  UNL1        0.0813
     23 N         140.0184  138.0019  157.6828 N.ar    1  UNL1       -0.2437
     24 C         139.8950  138.7631  158.9694 C.ar    1  UNL1        0.1033
     25 C         141.4835  136.7466  155.9428 C.ar    1  UNL1        0.0178
     26 C         140.3926  136.8267  154.9164 C.ar    1  UNL1        0.0038
     27 C         140.5160  136.0656  153.6297 C.ar    1  UNL1        0.0297
     28 C         141.7303  135.2243  153.3695 C.ar    1  UNL1        0.1401
     29 F         141.8537  134.4632  152.0829 F       1  UNL1       -0.2042
     30 C         142.8212  135.1442  154.3959 C.ar    1  UNL1        0.0297
     31 C         142.6977  135.9054  155.6825 C.ar    1  UNL1        0.0038
@<TRIPOS>BOND
     1    16    17    1
     2    17    18    1
     3    17    15    1
     4    15     5    1
     5     5     6   ar
     6     6     7   ar
     7     7     8   ar
     8     8     9   ar
     9     9    10   ar
    10     9    11    1
    11    11    12    1
    12    12    13    1
    13    13     1    1
    14     1     2    1
    15     1     3   am
    16     3     4    2
    17     3    19    1
    18    19    20   ar
    19    20    21   ar
    20    21    22   ar
    21    22    25    1
    22    25    26   ar
    23    26    27   ar
    24    27    28   ar
    25    28    29    1
    26    28    30   ar
    27    30    31   ar
    28    22    23   ar
    29    23    24   ar
    30    13    14    1
    31    10     5   ar
    32    24    19   ar
    33    14     8    1
    34    31    25   ar
@<TRIPOS>MOLECULE
*****
 31 34 0 0 0
SMALL
GASTEIGER

@<TRIPOS>ATOM
      1 N         143.3182  142.3632  160.8832 N.am    1  UNL1       -0.2756
      2 C         142.5886  143.5971  161.3251 C.3     1  UNL1        0.1151
      3 C         143.6172  141.2745  161.8708 C.2     1  UNL1        0.2505
      4 O         144.3468  140.0406  161.4288 O.2     1  UNL1       -0.2699
      5 C         146.4477  142.1179  154.7679 C.ar    1  UNL1       -0.0065
      6 C         147.4241  142.5982  155.8003 C.ar    1  UNL1       -0.0033
      7 C         146.9935  142.7434  157.2298 C.ar    1  UNL1       -0.0048
      8 C         145.5865  142.4081  157.6270 C.ar    1  UNL1       -0.0245
      9 C         144.6100  141.9278  156.5946 C.ar    1  UNL1       -0.0263
     10 C         145.0406  141.7826  155.1651 C.ar    1  UNL1       -0.0075
     11 C         143.2029  141.5925  156.9918 C.3     1  UNL1        0.0277
     12 C         142.7723  141.7376  158.4213 C.3     1  UNL1        0.0248
     13 C         143.7488  142.2180  159.4537 C.3     1  UNL1        0.0804
     14 C         145.1559  142.5533  159.0565 C.3     1  UNL1        0.0458
     15 C         146.8783  141.9727  153.3384 C.3     1  UNL1        0.0992
     16 C         148.9885  143.1125  152.3394 C.3     1  UNL1        0.0899
     17 N         147.5162  143.1285  152.6263 N.3     1  UNL1       -0.2665
     18 C         146.6820  144.3003  152.2009 C.3     1  UNL1        0.0899
     19 C         143.1866  141.4196  163.3003 C.ar    1  UNL1        0.0727
     20 C         144.0820  142.1085  164.2870 C.ar    1  UNL1        0.0076
     21 C         143.6514  142.2536  165.7165 C.ar    1  UNL1        0.0193
     22 C         142.3254  141.7098  166.1593 C.ar    1  UNL1        0.0813
     23 N         141.4300  141.0210  165.1726 N.ar    1  UNL1       -0.2437
     24 C         141.8606  140.8758  163.7430 C.ar    1  UNL1        0.1033
     25 C         141.8948  141.8550  167.5888 C.ar    1  UNL1        0.0178
     26 C         140.4812  141.5430  167.9817 C.ar    1  UNL1        0.0038
     27 C         140.0506  141.6881  169.4112 C.ar    1  UNL1        0.0297
     28 C         141.0336  142.1452  170.4479 C.ar    1  UNL1        0.1401
     29 F         140.6030  142.2904  171.8774 F       1  UNL1       -0.2042
     30 C         142.4472  142.4572  170.0550 C.ar    1  UNL1        0.0297
     31 C         142.8778  142.3121  168.6255 C.ar    1  UNL1        0.0038
@<TRIPOS>BOND
     1    16    17    1
     2    17    18    1
     3    17    15    1
     4    15     5    1
     5     5     6   ar
     6     6     7   ar
     7     7     8   ar
     8     8     9   ar
     9     9    10   ar
    10     9    11    1
    11    11    12    1
    12    12    13    1
    13    13     1    1
    14     1     2    1
    15     1     3   am
    16     3     4    2
    17     3    19    1
    18    19    20   ar
    19    20    21   ar
    20    21    22   ar
    21    22    25    1
    22    25    26   ar
    23    26    27   ar
    24    27    28   ar
    25    28    29    1
    26    28    30   ar
    27    30    31   ar
    28    22    23   ar
    29    23    24   ar
    30    13    14    1
    31    10     5   ar
    32    24    19   ar
    33    14     8    1
    34    31    25   ar
@<TRIPOS>MOLECULE
*****
 31 34 0 0 0
SMALL
GASTEIGER

@<TRIPOS>ATOM
      1 N         141.4722  137.3664  157.1927 N.am    1  UNL1       -0.2756
      2 C         142.6491  137.8654  157.9775 C.3     1  UNL1        0.1151
      3 C         140.0997  137.9000  157.4783 C.2     1  UNL1        0.2505
      4 O         138.9228  137.4010  156.6935 O.2     1  UNL1       -0.2699
      5 C         142.9021  131.9246  153.2441 C.ar    1  UNL1       -0.0065
      6 C         143.3543  131.6457  154.6469 C.ar    1  UNL1       -0.0033
      7 C         143.1587  132.6783  155.7172 C.ar    1  UNL1       -0.0048
      8 C         142.5110  133.9898  155.3847 C.ar    1  UNL1       -0.0245
      9 C         142.0588  134.2686  153.9819 C.ar    1  UNL1       -0.0263
     10 C         142.2544  133.2360  152.9116 C.ar    1  UNL1       -0.0075
     11 C         141.4111  135.5801  153.6494 C.3     1  UNL1        0.0277
     12 C         141.2155  136.6127  154.7197 C.3     1  UNL1        0.0248
     13 C         141.6677  136.3338  156.1225 C.3     1  UNL1        0.0804
     14 C         142.3154  135.0224  156.4550 C.3     1  UNL1        0.0458
     15 C         143.0977  130.8920  152.1739 C.3     1  UNL1        0.0992
     16 C         142.2832  128.5276  152.8786 C.3     1  UNL1        0.0899
     17 N         143.4013  129.4716  152.5485 N.3     1  UNL1       -0.2665
     18 C         144.8230  128.9952  152.5932 C.3     1  UNL1        0.0899
     19 C         139.9041  138.9326  158.5485 C.ar    1  UNL1        0.0727
     20 C         139.9413  140.3909  158.1995 C.ar    1  UNL1        0.0076
     21 C         139.7457  141.4235  159.2698 C.ar    1  UNL1        0.0193
     22 C         139.5130  140.9978  160.6891 C.ar    1  UNL1        0.0813
     23 N         139.4758  139.5395  161.0381 N.ar    1  UNL1       -0.2437
     24 C         139.6714  138.5069  159.9679 C.ar    1  UNL1        0.1033
     25 C         139.3174  142.0304  161.7594 C.ar    1  UNL1        0.0178
     26 C         140.3583  142.2138  162.8238 C.ar    1  UNL1        0.0038
     27 C         140.1627  143.2464  163.8940 C.ar    1  UNL1        0.0297
     28 C         138.9263  144.0956  163.8999 C.ar    1  UNL1        0.1401
     29 F         138.7308  145.1282  164.9702 F       1  UNL1       -0.2042
     30 C         137.8855  143.9123  162.8355 C.ar    1  UNL1        0.0297
     31 C         138.0811  142.8797  161.7652 C.ar    1  UNL1        0.0038
@<TRIPOS>BOND
     1    16    17    1
     2    17    18    1
     3    17    15    1
     4    15     5    1
     5     5     6   ar
     6     6     7   ar
     7     7     8   ar
     8     8     9   ar
     9     9    10   ar
    10     9    11    1
    11    11    12    1
    12    12    13    1
    13    13     1    1
    14     1     2    1
    15     1     3   am
    16     3     4    2
    17     3    19    1
    18    19    20   ar
    19    20    21   ar
    20    21    22   ar
    21    22    25    1
    22    25    26   ar
    23    26    27   ar
    24    27    28   ar
    25    28    29    1
    26    28    30   ar
    27    30    31   ar
    28    22    23   ar
    29    23    24   ar
    30    13    14    1
    31    10     5   ar
    32    24    19   ar
    33    14     8    1
    34    31    25   ar
@<TRIPOS>MOLECULE
*****
 31 34 0 0 0
SMALL
GASTEIGER

@<TRIPOS>ATOM
      1 N         144.0629  141.7511  159.1906 N.am    1  UNL1       -0.2756
      2 C         143.6308  142.8717  160.0894 C.3     1  UNL1        0.1151
      3 C         143.5874  140.3530  159.4534 C.2     1  UNL1        0.2505
      4 O         144.0195  139.2325  158.5547 O.2     1  UNL1       -0.2699
      5 C         147.2591  142.5104  153.1526 C.ar    1  UNL1       -0.0065
      6 C         145.9169  141.8816  152.9220 C.ar    1  UNL1       -0.0033
      7 C         145.0092  141.6040  154.0835 C.ar    1  UNL1       -0.0048
      8 C         145.4438  141.9552  155.4756 C.ar    1  UNL1       -0.0245
      9 C         146.7859  142.5839  155.7061 C.ar    1  UNL1       -0.0263
     10 C         147.6936  142.8615  154.5446 C.ar    1  UNL1       -0.0075
     11 C         147.2205  142.9351  157.0982 C.3     1  UNL1        0.0277
     12 C         146.3129  142.6575  158.2597 C.3     1  UNL1        0.0248
     13 C         144.9706  142.0287  158.0291 C.3     1  UNL1        0.0804
     14 C         144.5361  141.6776  156.6371 C.3     1  UNL1        0.0458
     15 C         148.1668  142.7880  151.9911 C.3     1  UNL1        0.0992
     16 C         150.7207  143.2615  152.0452 C.3     1  UNL1        0.0899
     17 N         149.5806  142.2874  152.0078 N.3     1  UNL1       -0.2665
     18 C         149.8545  140.8127  151.9870 C.3     1  UNL1        0.0899
     19 C         142.6797  140.0754  160.6149 C.ar    1  UNL1        0.0727
     20 C         143.2598  139.7245  161.9529 C.ar    1  UNL1        0.0076
     21 C         142.3521  139.4469  163.1144 C.ar    1  UNL1        0.0193
     22 C         140.8644  139.5202  162.9379 C.ar    1  UNL1        0.0813
     23 N         140.2843  139.8711  161.5999 N.ar    1  UNL1       -0.2437
     24 C         141.1920  140.1487  160.4384 C.ar    1  UNL1        0.1033
     25 C         139.9567  139.2426  164.0994 C.ar    1  UNL1        0.0178
     26 C         139.5614  140.3548  165.0249 C.ar    1  UNL1        0.0038
     27 C         138.6537  140.0772  166.1864 C.ar    1  UNL1        0.0297
     28 C         138.1414  138.6874  166.4224 C.ar    1  UNL1        0.1401
     29 F         137.2337  138.4098  167.5839 F       1  UNL1       -0.2042
     30 C         138.5367  137.5751  165.4969 C.ar    1  UNL1        0.0297
     31 C         139.4443  137.8527  164.3354 C.ar    1  UNL1        0.0038
@<TRIPOS>BOND
     1    16    17    1
     2    17    18    1
     3    17    15    1
     4    15     5    1
     5     5     6   ar
     6     6     7   ar
     7     7     8   ar
     8     8     9   ar
     9     9    10   ar
    10     9    11    1
    11    11    12    1
    12    12    13    1
    13    13     1    1
    14     1     2    1
    15     1     3   am
    16     3     4    2
    17     3    19    1
    18    19    20   ar
    19    20    21   ar
    20    21    22   ar
    21    22    25    1
    22    25    26   ar
    23    26    27   ar
    24    27    28   ar
    25    28    29    1
    26    28    30   ar
    27    30    31   ar
    28    22    23   ar
    29    23    24   ar
    30    13    14    1
    31    10     5   ar
    32    24    19   ar
    33    14     8    1
    34    31    25   ar
@<TRIPOS>MOLECULE
*****
 31 34 0 0 0
SMALL
GASTEIGER

@<TRIPOS>ATOM
      1 N         143.4254  141.0172  160.8779 N.am    1  UNL1       -0.2756
      2 C         142.0108  140.5230  160.9478 C.3     1  UNL1        0.1151
      3 C         144.1972  141.2630  162.1404 C.2     1  UNL1        0.2505
      4 O         145.6117  141.7571  162.0704 O.2     1  UNL1       -0.2699
      5 C         145.8496  141.0045  154.4457 C.ar    1  UNL1       -0.0065
      6 C         145.0603  139.7498  154.6755 C.ar    1  UNL1       -0.0033
      7 C         144.4177  139.5014  156.0078 C.ar    1  UNL1       -0.0048
      8 C         144.5642  140.5077  157.1105 C.ar    1  UNL1       -0.0245
      9 C         145.3535  141.7624  156.8807 C.ar    1  UNL1       -0.0263
     10 C         145.9962  142.0108  155.5483 C.ar    1  UNL1       -0.0075
     11 C         145.5001  142.7687  157.9834 C.3     1  UNL1        0.0277
     12 C         144.8574  142.5204  159.3158 C.3     1  UNL1        0.0248
     13 C         144.0681  141.2656  159.5455 C.3     1  UNL1        0.0804
     14 C         143.9215  140.2593  158.4429 C.3     1  UNL1        0.0458
     15 C         146.4923  141.2529  153.1133 C.3     1  UNL1        0.0992
     16 C         145.4155  143.4452  152.2277 C.3     1  UNL1        0.0899
     17 N         146.6350  142.6547  152.5992 N.3     1  UNL1       -0.2665
     18 C         147.9974  143.2661  152.4564 C.3     1  UNL1        0.0899
     19 C         143.5546  141.0146  163.4727 C.ar    1  UNL1        0.0727
     20 C         143.6099  139.6482  164.0891 C.ar    1  UNL1        0.0076
     21 C         142.9672  139.3999  165.4215 C.ar    1  UNL1        0.0193
     22 C         142.2692  140.5178  166.1375 C.ar    1  UNL1        0.0813
     23 N         142.2138  141.8842  165.5212 N.ar    1  UNL1       -0.2437
     24 C         142.8565  142.1326  164.1888 C.ar    1  UNL1        0.1033
     25 C         141.6265  140.2695  167.4699 C.ar    1  UNL1        0.0178
     26 C         142.4542  139.7849  168.6232 C.ar    1  UNL1        0.0038
     27 C         141.8115  139.5365  169.9556 C.ar    1  UNL1        0.0297
     28 C         140.3411  139.7727  170.1347 C.ar    1  UNL1        0.1401
     29 F         139.6984  139.5243  171.4671 F       1  UNL1       -0.2042
     30 C         139.5134  140.2573  168.9814 C.ar    1  UNL1        0.0297
     31 C         140.1561  140.5057  167.6490 C.ar    1  UNL1        0.0038
@<TRIPOS>BOND
     1    16    17    1
     2    17    18    1
     3    17    15    1
     4    15     5    1
     5     5     6   ar
     6     6     7   ar
     7     7     8   ar
     8     8     9   ar
     9     9    10   ar
    10     9    11    1
    11    11    12    1
    12    12    13    1
    13    13     1    1
    14     1     2    1
    15     1     3   am
    16     3     4    2
    17     3    19    1
    18    19    20   ar
    19    20    21   ar
    20    21    22   ar
    21    22    25    1
    22    25    26   ar
    23    26    27   ar
    24    27    28   ar
    25    28    29    1
    26    28    30   ar
    27    30    31   ar
    28    22    23   ar
    29    23    24   ar
    30    13    14    1
    31    10     5   ar
    32    24    19   ar
    33    14     8    1
    34    31    25   ar
