@<TRIPOS>MOLECULE
*****
 36 40 0 0 0
SMALL
GASTEIGER

@<TRIPOS>ATOM
      1 C         137.8788  140.0685  162.0809 C.3     1  UNL1        0.0570
      2 C         137.6962  140.4102  163.5299 C.3     1  UNL1        0.0331
      3 C         137.6850  141.8452  163.9665 C.3     1  UNL1        0.0735
      4 N         137.8566  142.9385  162.9539 N.3     1  UNL1       -0.2711
      5 C         138.0393  142.5968  161.5048 C.3     1  UNL1        0.0735
      6 C         138.0504  141.1618  161.0683 C.3     1  UNL1        0.0331
      7 N         137.8899  138.6335  161.6444 N.3     1  UNL1       -0.2934
      8 H         137.4780  138.0914  162.4039 H       1  UNL1        0.1236
      9 C         139.1864  137.9671  161.2905 C.3     1  UNL1        0.1152
     10 O         145.9031  141.6805  162.6496 O.2     1  UNL1       -0.2707
     11 C         144.8777  140.6618  163.0507 C.2     1  UNL1        0.2718
     12 C         145.0657  139.8623  164.3058 C.3     1  UNL1        0.2898
     13 O         144.0403  138.8436  164.7068 O.3     1  UNL1       -0.4628
     14 C         142.8268  138.6245  163.8528 C.ar    1  UNL1        0.1708
     15 C         141.8014  137.6058  164.2538 C.ar    1  UNL1        0.0411
     16 C         140.5880  137.3867  163.3998 C.ar    1  UNL1        0.0193
     17 C         140.3999  138.1863  162.1446 C.ar    1  UNL1        0.0765
     18 N         141.4253  139.2049  161.7435 N.ar    1  UNL1       -0.2304
     19 C         142.6388  139.4240  162.5977 C.ar    1  UNL1        0.1682
     20 N         143.6642  140.4427  162.1966 N.am    1  UNL1       -0.2639
     21 H         143.5408  140.9674  161.3728 H       1  UNL1        0.1565
     22 C         137.8455  144.3735  163.3905 C.3     1  UNL1        0.0942
     23 C         138.9008  144.8804  164.3282 C.3     1  UNL1        0.1157
     24 N         140.3335  144.4823  164.1308 N.am    1  UNL1       -0.2515
     25 C         141.0995  144.9991  162.9492 C.2     1  UNL1        0.2740
     26 O         140.4328  145.9140  161.9650 O.2     1  UNL1       -0.2705
     27 C         142.5322  144.6010  162.7517 C.3     1  UNL1        0.2900
     28 O         143.1989  143.6861  163.7359 O.3     1  UNL1       -0.4643
     29 C         142.4329  143.1693  164.9175 C.ar    1  UNL1        0.1530
     30 C         143.0995  142.2544  165.9016 C.ar    1  UNL1        0.0413
     31 C         142.3336  141.7376  167.0832 C.ar    1  UNL1        0.0398
     32 C         140.9009  142.1357  167.2807 C.ar    1  UNL1        0.1351
     33 O         140.1349  141.6188  168.4622 O.3     1  UNL1       -0.5055
     34 C         140.2342  143.0506  166.2965 C.ar    1  UNL1        0.0546
     35 C         141.0002  143.5674  165.1149 C.ar    1  UNL1        0.0912
     36 H         140.5514  141.0473  169.0770 H       1  UNL1        0.2922
@<TRIPOS>BOND
     1    10    11    2
     2    11    12    1
     3    12    13    1
     4    13    14    1
     5    14    15   ar
     6    15    16   ar
     7    16    17   ar
     8    17     9    1
     9     9     7    1
    10     7     1    1
    11     1     2    1
    12     2     3    1
    13     3     4    1
    14     4    22    1
    15    22    23    1
    16    23    24    1
    17    24    25   am
    18    25    26    2
    19    25    27    1
    20    27    28    1
    21    28    29    1
    22    29    30   ar
    23    30    31   ar
    24    31    32   ar
    25    32    33    1
    26    32    34   ar
    27    34    35   ar
    28     4     5    1
    29     5     6    1
    30    17    18   ar
    31    18    19   ar
    32    19    20    1
    33    20    11   am
    34    19    14   ar
    35     6     1    1
    36    35    24    1
    37    35    29   ar
    38     7     8    1
    39    33    36    1
    40    20    21    1
@<TRIPOS>MOLECULE
*****
 36 40 0 0 0
SMALL
GASTEIGER

@<TRIPOS>ATOM
      1 C         139.6636  137.8001  162.5556 C.3     1  UNL1        0.0570
      2 C         141.0577  138.0415  162.0574 C.3     1  UNL1        0.0331
      3 C         142.1909  138.1692  163.0320 C.3     1  UNL1        0.0735
      4 N         141.9298  138.0556  164.5048 N.3     1  UNL1       -0.2711
      5 C         140.5356  137.8142  165.0029 C.3     1  UNL1        0.0735
      6 C         139.4026  137.6865  164.0283 C.3     1  UNL1        0.0331
      7 N         138.5306  137.6724  161.5810 N.3     1  UNL1       -0.2934
      8 H         138.9464  137.6220  160.6510 H       1  UNL1        0.1236
      9 C         137.4680  138.7296  161.5235 C.3     1  UNL1        0.1152
     10 O         138.4648  145.3006  165.5950 O.2     1  UNL1       -0.2707
     11 C         138.5133  144.5601  164.2914 C.2     1  UNL1        0.2718
     12 C         138.9426  145.2695  163.0414 C.3     1  UNL1        0.2898
     13 O         138.9911  144.5290  161.7379 O.3     1  UNL1       -0.4628
     14 C         138.6103  143.0792  161.6843 C.ar    1  UNL1        0.1708
     15 C         138.6589  142.3387  160.3807 C.ar    1  UNL1        0.0411
     16 C         138.2781  140.8888  160.3271 C.ar    1  UNL1        0.0193
     17 C         137.8487  140.1794  161.5771 C.ar    1  UNL1        0.0765
     18 N         137.8002  140.9199  162.8807 N.ar    1  UNL1       -0.2304
     19 C         138.1810  142.3698  162.9342 C.ar    1  UNL1        0.1682
     20 N         138.1325  143.1103  164.2378 N.am    1  UNL1       -0.2639
     21 H         137.8508  142.6447  165.0582 H       1  UNL1        0.1565
     22 C         143.0628  138.1833  165.4794 C.3     1  UNL1        0.0942
     23 C         143.0130  139.2280  166.5546 C.3     1  UNL1        0.1157
     24 N         142.3599  140.5512  166.2851 N.am    1  UNL1       -0.2515
     25 C         141.0524  140.8890  166.9380 C.2     1  UNL1        0.2740
     26 O         140.3981  139.9037  167.8605 O.2     1  UNL1       -0.2705
     27 C         140.3993  142.2122  166.6685 C.3     1  UNL1        0.2900
     28 O         141.0537  143.1976  165.7460 O.3     1  UNL1       -0.4643
     29 C         142.3611  142.8597  165.0931 C.ar    1  UNL1        0.1530
     30 C         143.0155  143.8450  164.1707 C.ar    1  UNL1        0.0413
     31 C         144.3230  143.5072  163.5177 C.ar    1  UNL1        0.0398
     32 C         144.9761  142.1840  163.7872 C.ar    1  UNL1        0.1351
     33 O         146.2836  141.8462  163.1342 O.3     1  UNL1       -0.5055
     34 C         144.3218  141.1987  164.7097 C.ar    1  UNL1        0.0546
     35 C         143.0143  141.5365  165.3626 C.ar    1  UNL1        0.0912
     36 H         146.6924  142.4617  162.5580 H       1  UNL1        0.2922
@<TRIPOS>BOND
     1    10    11    2
     2    11    12    1
     3    12    13    1
     4    13    14    1
     5    14    15   ar
     6    15    16   ar
     7    16    17   ar
     8    17     9    1
     9     9     7    1
    10     7     1    1
    11     1     2    1
    12     2     3    1
    13     3     4    1
    14     4    22    1
    15    22    23    1
    16    23    24    1
    17    24    25   am
    18    25    26    2
    19    25    27    1
    20    27    28    1
    21    28    29    1
    22    29    30   ar
    23    30    31   ar
    24    31    32   ar
    25    32    33    1
    26    32    34   ar
    27    34    35   ar
    28     4     5    1
    29     5     6    1
    30    17    18   ar
    31    18    19   ar
    32    19    20    1
    33    20    11   am
    34    19    14   ar
    35     6     1    1
    36    35    24    1
    37    35    29   ar
    38     7     8    1
    39    33    36    1
    40    20    21    1
@<TRIPOS>MOLECULE
*****
 36 40 0 0 0
SMALL
GASTEIGER

@<TRIPOS>ATOM
      1 C         139.5872  137.9526  162.5466 C.3     1  UNL1        0.0570
      2 C         139.2620  137.7701  163.9994 C.3     1  UNL1        0.0331
      3 C         140.3459  137.8815  165.0304 C.3     1  UNL1        0.0735
      4 N         141.7550  138.1753  164.6084 N.3     1  UNL1       -0.2711
      5 C         142.0802  138.3579  163.1554 C.3     1  UNL1        0.0735
      6 C         140.9963  138.2465  162.1246 C.3     1  UNL1        0.0331
      7 N         138.5033  137.8412  161.5157 N.3     1  UNL1       -0.2934
      8 H         138.9646  137.6907  160.6185 H       1  UNL1        0.1236
      9 C         137.5348  138.9700  161.3207 C.3     1  UNL1        0.1152
     10 O         141.5788  145.4512  159.7747 O.2     1  UNL1       -0.2707
     11 C         140.6285  144.6911  160.6517 C.2     1  UNL1        0.2718
     12 C         140.0757  145.3315  161.8905 C.3     1  UNL1        0.2898
     13 O         139.1254  144.5715  162.7675 O.3     1  UNL1       -0.4628
     14 C         138.7277  143.1711  162.4058 C.ar    1  UNL1        0.1708
     15 C         137.7774  142.4111  163.2828 C.ar    1  UNL1        0.0411
     16 C         137.3797  141.0107  162.9212 C.ar    1  UNL1        0.0193
     17 C         137.9324  140.3703  161.6824 C.ar    1  UNL1        0.0765
     18 N         138.8828  141.1304  160.8054 N.ar    1  UNL1       -0.2304
     19 C         139.2804  142.5308  161.1671 C.ar    1  UNL1        0.1682
     20 N         140.2308  143.2908  160.2901 N.am    1  UNL1       -0.2639
     21 H         140.5936  142.8705  159.4771 H       1  UNL1        0.1565
     22 C         142.8389  138.2867  165.6393 C.3     1  UNL1        0.0942
     23 C         142.9118  139.4964  166.5231 C.3     1  UNL1        0.1157
     24 N         142.2604  140.7782  166.0954 N.am    1  UNL1       -0.2515
     25 C         140.9107  141.1498  166.6344 C.2     1  UNL1        0.2740
     26 O         140.2125  140.2397  167.6010 O.2     1  UNL1       -0.2705
     27 C         140.2593  142.4315  166.2067 C.3     1  UNL1        0.2900
     28 O         140.9575  143.3416  165.2401 O.3     1  UNL1       -0.4643
     29 C         142.3071  142.9700  164.7012 C.ar    1  UNL1        0.1530
     30 C         143.0053  143.8800  163.7347 C.ar    1  UNL1        0.0413
     31 C         144.3549  143.5084  163.1957 C.ar    1  UNL1        0.0398
     32 C         145.0064  142.2268  163.6234 C.ar    1  UNL1        0.1351
     33 O         146.3560  141.8551  163.0844 O.3     1  UNL1       -0.5055
     34 C         144.3082  141.3166  164.5900 C.ar    1  UNL1        0.0546
     35 C         142.9585  141.6882  165.1289 C.ar    1  UNL1        0.0912
     36 H         146.7921  142.4236  162.4806 H       1  UNL1        0.2922
@<TRIPOS>BOND
     1    10    11    2
     2    11    12    1
     3    12    13    1
     4    13    14    1
     5    14    15   ar
     6    15    16   ar
     7    16    17   ar
     8    17     9    1
     9     9     7    1
    10     7     1    1
    11     1     2    1
    12     2     3    1
    13     3     4    1
    14     4    22    1
    15    22    23    1
    16    23    24    1
    17    24    25   am
    18    25    26    2
    19    25    27    1
    20    27    28    1
    21    28    29    1
    22    29    30   ar
    23    30    31   ar
    24    31    32   ar
    25    32    33    1
    26    32    34   ar
    27    34    35   ar
    28     4     5    1
    29     5     6    1
    30    17    18   ar
    31    18    19   ar
    32    19    20    1
    33    20    11   am
    34    19    14   ar
    35     6     1    1
    36    35    24    1
    37    35    29   ar
    38     7     8    1
    39    33    36    1
    40    20    21    1
@<TRIPOS>MOLECULE
*****
 36 40 0 0 0
SMALL
GASTEIGER

@<TRIPOS>ATOM
      1 C         144.1905  139.9307  163.3898 C.3     1  UNL1        0.0570
      2 C         144.1579  139.4507  164.8105 C.3     1  UNL1        0.0331
      3 C         142.9280  138.7809  165.3479 C.3     1  UNL1        0.0735
      4 N         141.7307  138.5911  164.4645 N.3     1  UNL1       -0.2711
      5 C         141.7633  139.0711  163.0437 C.3     1  UNL1        0.0735
      6 C         142.9932  139.7409  162.5064 C.3     1  UNL1        0.0331
      7 N         145.4204  140.6005  162.8525 N.3     1  UNL1       -0.2934
      8 H         146.2184  140.1682  163.3182 H       1  UNL1        0.1236
      9 C         145.5886  142.0844  162.9934 C.3     1  UNL1        0.1152
     10 O         139.9028  145.7440  159.1167 O.2     1  UNL1       -0.2707
     11 C         140.5941  145.4189  160.4075 C.2     1  UNL1        0.2718
     12 C         140.0815  145.9884  161.6970 C.3     1  UNL1        0.2898
     13 O         140.7728  145.6632  162.9879 O.3     1  UNL1       -0.4628
     14 C         141.9767  144.7685  162.9893 C.ar    1  UNL1        0.1708
     15 C         142.6680  144.4434  164.2802 C.ar    1  UNL1        0.0411
     16 C         143.8720  143.5487  164.2816 C.ar    1  UNL1        0.0193
     17 C         144.3846  142.9791  162.9920 C.ar    1  UNL1        0.0765
     18 N         143.6933  143.3043  161.7011 N.ar    1  UNL1       -0.2304
     19 C         142.4893  144.1990  161.6998 C.ar    1  UNL1        0.1682
     20 N         141.7980  144.5242  160.4089 N.am    1  UNL1       -0.2639
     21 H         142.1345  144.1503  159.5626 H       1  UNL1        0.1565
     22 C         140.5008  137.9213  165.0017 C.3     1  UNL1        0.0942
     23 C         139.5344  138.6954  165.8483 C.3     1  UNL1        0.1157
     24 N         139.6353  140.1901  165.9256 N.am    1  UNL1       -0.2515
     25 C         140.3894  140.8336  167.0513 C.2     1  UNL1        0.2740
     26 O         141.0426  139.9825  168.0997 O.2     1  UNL1       -0.2705
     27 C         140.4903  142.3282  167.1287 C.3     1  UNL1        0.2900
     28 O         139.8371  143.1793  166.0803 O.3     1  UNL1       -0.4643
     29 C         139.0830  142.5357  164.9546 C.ar    1  UNL1        0.1530
     30 C         138.4298  143.3867  163.9062 C.ar    1  UNL1        0.0413
     31 C         137.6757  142.7432  162.7805 C.ar    1  UNL1        0.0398
     32 C         137.5748  141.2486  162.7032 C.ar    1  UNL1        0.1351
     33 O         136.8208  140.6050  161.5775 O.3     1  UNL1       -0.5055
     34 C         138.2281  140.3975  163.7516 C.ar    1  UNL1        0.0546
     35 C         138.9821  141.0411  164.8773 C.ar    1  UNL1        0.0912
     36 H         136.4127  141.1366  160.9226 H       1  UNL1        0.2922
@<TRIPOS>BOND
     1    10    11    2
     2    11    12    1
     3    12    13    1
     4    13    14    1
     5    14    15   ar
     6    15    16   ar
     7    16    17   ar
     8    17     9    1
     9     9     7    1
    10     7     1    1
    11     1     2    1
    12     2     3    1
    13     3     4    1
    14     4    22    1
    15    22    23    1
    16    23    24    1
    17    24    25   am
    18    25    26    2
    19    25    27    1
    20    27    28    1
    21    28    29    1
    22    29    30   ar
    23    30    31   ar
    24    31    32   ar
    25    32    33    1
    26    32    34   ar
    27    34    35   ar
    28     4     5    1
    29     5     6    1
    30    17    18   ar
    31    18    19   ar
    32    19    20    1
    33    20    11   am
    34    19    14   ar
    35     6     1    1
    36    35    24    1
    37    35    29   ar
    38     7     8    1
    39    33    36    1
    40    20    21    1
@<TRIPOS>MOLECULE
*****
 36 40 0 0 0
SMALL
GASTEIGER

@<TRIPOS>ATOM
      1 C         142.2635  138.1214  162.9610 C.3     1  UNL1        0.0570
      2 C         142.9386  138.9053  161.8748 C.3     1  UNL1        0.0331
      3 C         144.0631  139.8392  162.2119 C.3     1  UNL1        0.0735
      4 N         144.5124  139.9890  163.6352 N.3     1  UNL1       -0.2711
      5 C         143.8373  139.2050  164.7213 C.3     1  UNL1        0.0735
      6 C         142.7128  138.2713  164.3842 C.3     1  UNL1        0.0331
      7 N         141.1391  137.1877  162.6238 N.3     1  UNL1       -0.2934
      8 H         141.4745  136.5808  161.8757 H       1  UNL1        0.1236
      9 C         139.8169  137.7367  162.1760 C.3     1  UNL1        0.1152
     10 O         138.3758  145.3959  162.0822 O.2     1  UNL1       -0.2707
     11 C         138.2904  144.0664  162.7715 C.2     1  UNL1        0.2718
     12 C         137.6394  143.9604  164.1186 C.3     1  UNL1        0.2898
     13 O         137.5541  142.6308  164.8079 O.3     1  UNL1       -0.4628
     14 C         138.1198  141.4073  164.1499 C.ar    1  UNL1        0.1708
     15 C         138.0345  140.0778  164.8391 C.ar    1  UNL1        0.0411
     16 C         138.6002  138.8542  164.1812 C.ar    1  UNL1        0.0193
     17 C         139.2512  138.9602  162.8339 C.ar    1  UNL1        0.0765
     18 N         139.3365  140.2897  162.1447 N.ar    1  UNL1       -0.2304
     19 C         138.7708  141.5133  162.8027 C.ar    1  UNL1        0.1682
     20 N         138.8561  142.8429  162.1135 N.am    1  UNL1       -0.2639
     21 H         139.2834  142.9124  161.2293 H       1  UNL1        0.1565
     22 C         145.6368  140.9228  163.9723 C.3     1  UNL1        0.0942
     23 C         145.3492  142.3619  164.2822 C.3     1  UNL1        0.1157
     24 N         143.9552  142.8963  164.1369 N.am    1  UNL1       -0.2515
     25 C         143.5483  143.5968  162.8744 C.2     1  UNL1        0.2740
     26 O         144.5355  143.7629  161.7572 O.2     1  UNL1       -0.2705
     27 C         142.1543  144.1312  162.7291 C.3     1  UNL1        0.2900
     28 O         141.1671  143.9652  163.8462 O.3     1  UNL1       -0.4643
     29 C         141.5740  143.2647  165.1087 C.ar    1  UNL1        0.1530
     30 C         140.5869  143.0986  166.2258 C.ar    1  UNL1        0.0413
     31 C         140.9938  142.3982  167.4882 C.ar    1  UNL1        0.0398
     32 C         142.3877  141.8638  167.6336 C.ar    1  UNL1        0.1351
     33 O         142.7946  141.1633  168.8960 O.3     1  UNL1       -0.5055
     34 C         143.3749  142.0298  166.5164 C.ar    1  UNL1        0.0546
     35 C         142.9680  142.7303  165.2540 C.ar    1  UNL1        0.0912
     36 H         142.1780  141.0596  169.5939 H       1  UNL1        0.2922
@<TRIPOS>BOND
     1    10    11    2
     2    11    12    1
     3    12    13    1
     4    13    14    1
     5    14    15   ar
     6    15    16   ar
     7    16    17   ar
     8    17     9    1
     9     9     7    1
    10     7     1    1
    11     1     2    1
    12     2     3    1
    13     3     4    1
    14     4    22    1
    15    22    23    1
    16    23    24    1
    17    24    25   am
    18    25    26    2
    19    25    27    1
    20    27    28    1
    21    28    29    1
    22    29    30   ar
    23    30    31   ar
    24    31    32   ar
    25    32    33    1
    26    32    34   ar
    27    34    35   ar
    28     4     5    1
    29     5     6    1
    30    17    18   ar
    31    18    19   ar
    32    19    20    1
    33    20    11   am
    34    19    14   ar
    35     6     1    1
    36    35    24    1
    37    35    29   ar
    38     7     8    1
    39    33    36    1
    40    20    21    1
@<TRIPOS>MOLECULE
*****
 36 40 0 0 0
SMALL
GASTEIGER

@<TRIPOS>ATOM
      1 C         144.3471  139.7692  163.4115 C.3     1  UNL1        0.0570
      2 C         144.0103  139.4999  164.8481 C.3     1  UNL1        0.0331
      3 C         142.7655  138.7390  165.1967 C.3     1  UNL1        0.0735
      4 N         141.8575  138.2474  164.1086 N.3     1  UNL1       -0.2711
      5 C         142.1944  138.5168  162.6719 C.3     1  UNL1        0.0735
      6 C         143.4392  139.2777  162.3234 C.3     1  UNL1        0.0331
      7 N         145.5919  140.5301  163.0629 N.3     1  UNL1       -0.2934
      8 H         146.3653  140.0614  163.5348 H       1  UNL1        0.1236
      9 C         145.6989  141.9880  163.3996 C.3     1  UNL1        0.1152
     10 O         140.4065  145.3732  158.7865 O.2     1  UNL1       -0.2707
     11 C         140.9819  145.1433  160.1525 C.2     1  UNL1        0.2718
     12 C         140.3686  145.8121  161.3469 C.3     1  UNL1        0.2898
     13 O         140.9439  145.5822  162.7130 O.3     1  UNL1       -0.4628
     14 C         142.1326  144.6837  162.8846 C.ar    1  UNL1        0.1708
     15 C         142.7080  144.4538  164.2507 C.ar    1  UNL1        0.0411
     16 C         143.8967  143.5553  164.4224 C.ar    1  UNL1        0.0193
     17 C         144.5101  142.8865  163.2280 C.ar    1  UNL1        0.0765
     18 N         143.9348  143.1164  161.8619 N.ar    1  UNL1       -0.2304
     19 C         142.7460  144.0150  161.6903 C.ar    1  UNL1        0.1682
     20 N         142.1706  144.2448  160.3242 N.am    1  UNL1       -0.2639
     21 H         142.5732  143.8059  159.5403 H       1  UNL1        0.1565
     22 C         140.6127  137.4865  164.4571 C.3     1  UNL1        0.0942
     23 C         139.3707  138.2246  164.8603 C.3     1  UNL1        0.1157
     24 N         138.9204  139.4203  164.0744 N.am    1  UNL1       -0.2515
     25 C         138.2441  139.2349  162.7484 C.2     1  UNL1        0.2740
     26 O         138.0182  137.8538  162.2083 O.2     1  UNL1       -0.2705
     27 C         137.7938  140.4305  161.9625 C.3     1  UNL1        0.2900
     28 O         138.0197  141.8116  162.5025 O.3     1  UNL1       -0.4643
     29 C         138.6960  141.9970  163.8285 C.ar    1  UNL1        0.1530
     30 C         138.9219  143.3780  164.3686 C.ar    1  UNL1        0.0413
     31 C         139.5982  143.5634  165.6946 C.ar    1  UNL1        0.0398
     32 C         140.0485  142.3678  166.4805 C.ar    1  UNL1        0.1351
     33 O         140.7248  142.5533  167.8065 O.3     1  UNL1       -0.5055
     34 C         139.8226  140.9867  165.9404 C.ar    1  UNL1        0.0546
     35 C         139.1463  140.8013  164.6144 C.ar    1  UNL1        0.0912
     36 H         140.8660  143.4160  168.1439 H       1  UNL1        0.2922
@<TRIPOS>BOND
     1    10    11    2
     2    11    12    1
     3    12    13    1
     4    13    14    1
     5    14    15   ar
     6    15    16   ar
     7    16    17   ar
     8    17     9    1
     9     9     7    1
    10     7     1    1
    11     1     2    1
    12     2     3    1
    13     3     4    1
    14     4    22    1
    15    22    23    1
    16    23    24    1
    17    24    25   am
    18    25    26    2
    19    25    27    1
    20    27    28    1
    21    28    29    1
    22    29    30   ar
    23    30    31   ar
    24    31    32   ar
    25    32    33    1
    26    32    34   ar
    27    34    35   ar
    28     4     5    1
    29     5     6    1
    30    17    18   ar
    31    18    19   ar
    32    19    20    1
    33    20    11   am
    34    19    14   ar
    35     6     1    1
    36    35    24    1
    37    35    29   ar
    38     7     8    1
    39    33    36    1
    40    20    21    1
@<TRIPOS>MOLECULE
*****
 36 40 0 0 0
SMALL
GASTEIGER

@<TRIPOS>ATOM
      1 C         141.9230  138.1445  162.0552 C.3     1  UNL1        0.0570
      2 C         143.4206  138.1975  161.9897 C.3     1  UNL1        0.0331
      3 C         144.1013  139.3465  161.3065 C.3     1  UNL1        0.0735
      4 N         143.2843  140.4423  160.6887 N.3     1  UNL1       -0.2711
      5 C         141.7866  140.3892  160.7542 C.3     1  UNL1        0.0735
      6 C         141.1060  139.2403  161.4374 C.3     1  UNL1        0.0331
      7 N         141.2424  136.9956  162.7384 N.3     1  UNL1       -0.2934
      8 H         140.2751  136.9919  162.4150 H       1  UNL1        0.1236
      9 C         141.1984  136.9334  164.2365 C.3     1  UNL1        0.1152
     10 O         143.6641  142.6766  168.8933 O.2     1  UNL1       -0.2707
     11 C         142.5590  142.0028  168.1352 C.2     1  UNL1        0.2718
     12 C         141.1707  142.5695  168.1714 C.3     1  UNL1        0.2898
     13 O         140.0655  141.8956  167.4134 O.3     1  UNL1       -0.4628
     14 C         140.3487  140.6551  166.6192 C.ar    1  UNL1        0.1708
     15 C         139.2436  139.9812  165.8611 C.ar    1  UNL1        0.0411
     16 C         139.5268  138.7407  165.0669 C.ar    1  UNL1        0.0193
     17 C         140.9152  138.1739  165.0307 C.ar    1  UNL1        0.0765
     18 N         142.0203  138.8478  165.7888 N.ar    1  UNL1       -0.2304
     19 C         141.7371  140.0884  166.5830 C.ar    1  UNL1        0.1682
     20 N         142.8422  140.7622  167.3410 N.am    1  UNL1       -0.2639
     21 H         143.7534  140.3903  167.3173 H       1  UNL1        0.1565
     22 C         143.9649  141.5912  160.0055 C.3     1  UNL1        0.0942
     23 C         144.4346  142.7687  160.8071 C.3     1  UNL1        0.1157
     24 N         143.9919  142.9314  162.2311 N.am    1  UNL1       -0.2515
     25 C         144.8362  142.3885  163.3457 C.2     1  UNL1        0.2740
     26 O         146.1233  141.6829  163.0363 O.2     1  UNL1       -0.2705
     27 C         144.3935  142.5511  164.7696 C.3     1  UNL1        0.2900
     28 O         143.1064  143.2567  165.0789 O.3     1  UNL1       -0.4643
     29 C         142.2621  143.7996  163.9643 C.ar    1  UNL1        0.1530
     30 C         140.9751  144.5052  164.2736 C.ar    1  UNL1        0.0413
     31 C         140.1307  145.0481  163.1590 C.ar    1  UNL1        0.0398
     32 C         140.5734  144.8855  161.7351 C.ar    1  UNL1        0.1351
     33 O         139.7291  145.4284  160.6205 O.3     1  UNL1       -0.5055
     34 C         141.8605  144.1799  161.4258 C.ar    1  UNL1        0.0546
     35 C         142.7048  143.6370  162.5404 C.ar    1  UNL1        0.0912
     36 H         138.9251  145.8692  160.8137 H       1  UNL1        0.2922
@<TRIPOS>BOND
     1    10    11    2
     2    11    12    1
     3    12    13    1
     4    13    14    1
     5    14    15   ar
     6    15    16   ar
     7    16    17   ar
     8    17     9    1
     9     9     7    1
    10     7     1    1
    11     1     2    1
    12     2     3    1
    13     3     4    1
    14     4    22    1
    15    22    23    1
    16    23    24    1
    17    24    25   am
    18    25    26    2
    19    25    27    1
    20    27    28    1
    21    28    29    1
    22    29    30   ar
    23    30    31   ar
    24    31    32   ar
    25    32    33    1
    26    32    34   ar
    27    34    35   ar
    28     4     5    1
    29     5     6    1
    30    17    18   ar
    31    18    19   ar
    32    19    20    1
    33    20    11   am
    34    19    14   ar
    35     6     1    1
    36    35    24    1
    37    35    29   ar
    38     7     8    1
    39    33    36    1
    40    20    21    1
@<TRIPOS>MOLECULE
*****
 36 40 0 0 0
SMALL
GASTEIGER

@<TRIPOS>ATOM
      1 C         141.4467  137.6223  162.5222 C.3     1  UNL1        0.0570
      2 C         141.8283  137.5771  163.9721 C.3     1  UNL1        0.0331
      3 C         140.7914  137.8203  165.0284 C.3     1  UNL1        0.0735
      4 N         139.3730  138.1086  164.6348 N.3     1  UNL1       -0.2711
      5 C         138.9915  138.1538  163.1847 C.3     1  UNL1        0.0735
      6 C         140.0283  137.9107  162.1285 C.3     1  UNL1        0.0331
      7 N         142.4836  137.3792  161.4659 N.3     1  UNL1       -0.2934
      8 H         142.8310  136.4306  161.6071 H       1  UNL1        0.1236
      9 C         143.6859  138.2717  161.3756 C.3     1  UNL1        0.1152
     10 O         145.2012  144.2386  166.1557 O.2     1  UNL1       -0.2707
     11 C         144.5761  143.7061  164.9004 C.2     1  UNL1        0.2718
     12 C         143.8310  144.6300  163.9833 C.3     1  UNL1        0.2898
     13 O         143.2059  144.0975  162.7280 O.3     1  UNL1       -0.4628
     14 C         143.3259  142.6410  162.3899 C.ar    1  UNL1        0.1708
     15 C         142.7008  142.1085  161.1346 C.ar    1  UNL1        0.0411
     16 C         142.8208  140.6521  160.7965 C.ar    1  UNL1        0.0193
     17 C         143.5659  139.7281  161.7137 C.ar    1  UNL1        0.0765
     18 N         144.1910  140.2606  162.9689 N.ar    1  UNL1       -0.2304
     19 C         144.0710  141.7171  163.3070 C.ar    1  UNL1        0.1682
     20 N         144.6961  142.2497  164.5623 N.am    1  UNL1       -0.2639
     21 H         145.1851  141.6433  165.1642 H       1  UNL1        0.1565
     22 C         138.3361  138.3518  165.6910 C.3     1  UNL1        0.0942
     23 C         138.3337  139.6416  166.4567 C.3     1  UNL1        0.1157
     24 N         139.4012  140.6650  166.2054 N.am    1  UNL1       -0.2515
     25 C         139.2943  141.5862  165.0264 C.2     1  UNL1        0.2740
     26 O         138.1200  141.4839  164.0987 O.2     1  UNL1       -0.2705
     27 C         140.3617  142.6096  164.7751 C.3     1  UNL1        0.2900
     28 O         141.5361  142.7119  165.7028 O.3     1  UNL1       -0.4643
     29 C         141.6429  141.7907  166.8818 C.ar    1  UNL1        0.1530
     30 C         142.8172  141.8930  167.8094 C.ar    1  UNL1        0.0413
     31 C         142.9240  140.9718  168.9884 C.ar    1  UNL1        0.0398
     32 C         141.8566  139.9484  169.2398 C.ar    1  UNL1        0.1351
     33 O         141.9634  139.0272  170.4188 O.3     1  UNL1       -0.5055
     34 C         140.6823  139.8461  168.3121 C.ar    1  UNL1        0.0546
     35 C         140.5754  140.7673  167.1331 C.ar    1  UNL1        0.0912
     36 H         142.6970  139.0911  170.9983 H       1  UNL1        0.2922
@<TRIPOS>BOND
     1    10    11    2
     2    11    12    1
     3    12    13    1
     4    13    14    1
     5    14    15   ar
     6    15    16   ar
     7    16    17   ar
     8    17     9    1
     9     9     7    1
    10     7     1    1
    11     1     2    1
    12     2     3    1
    13     3     4    1
    14     4    22    1
    15    22    23    1
    16    23    24    1
    17    24    25   am
    18    25    26    2
    19    25    27    1
    20    27    28    1
    21    28    29    1
    22    29    30   ar
    23    30    31   ar
    24    31    32   ar
    25    32    33    1
    26    32    34   ar
    27    34    35   ar
    28     4     5    1
    29     5     6    1
    30    17    18   ar
    31    18    19   ar
    32    19    20    1
    33    20    11   am
    34    19    14   ar
    35     6     1    1
    36    35    24    1
    37    35    29   ar
    38     7     8    1
    39    33    36    1
    40    20    21    1
@<TRIPOS>MOLECULE
*****
 36 40 0 0 0
SMALL
GASTEIGER

@<TRIPOS>ATOM
      1 C         144.1446  139.8890  163.4472 C.3     1  UNL1        0.0570
      2 C         143.9672  139.5075  164.8870 C.3     1  UNL1        0.0331
      3 C         142.6840  138.8790  165.3438 C.3     1  UNL1        0.0735
      4 N         141.5783  138.6320  164.3607 N.3     1  UNL1       -0.2711
      5 C         141.7557  139.0136  162.9209 C.3     1  UNL1        0.0735
      6 C         143.0388  139.6420  162.4642 C.3     1  UNL1        0.0331
      7 N         145.4277  140.5175  162.9905 N.3     1  UNL1       -0.2934
      8 H         146.1768  140.0817  163.5284 H       1  UNL1        0.1236
      9 C         145.6186  142.0009  163.1050 C.3     1  UNL1        0.1152
     10 O         139.9702  145.6242  159.1406 O.2     1  UNL1       -0.2707
     11 C         140.6635  145.3299  160.4378 C.2     1  UNL1        0.2718
     12 C         140.1672  145.9490  161.7108 C.3     1  UNL1        0.2898
     13 O         140.8605  145.6546  163.0080 O.3     1  UNL1       -0.4628
     14 C         142.0500  144.7412  163.0323 C.ar    1  UNL1        0.1708
     15 C         142.7432  144.4469  164.3295 C.ar    1  UNL1        0.0411
     16 C         143.9328  143.5334  164.3537 C.ar    1  UNL1        0.0193
     17 C         144.4291  142.9143  163.0807 C.ar    1  UNL1        0.0765
     18 N         143.7358  143.2087  161.7835 N.ar    1  UNL1       -0.2304
     19 C         142.5462  144.1221  161.7593 C.ar    1  UNL1        0.1682
     20 N         141.8530  144.4165  160.4621 N.am    1  UNL1       -0.2639
     21 H         142.1787  144.0101  159.6266 H       1  UNL1        0.1565
     22 C         140.2952  138.0036  164.8174 C.3     1  UNL1        0.0942
     23 C         139.2600  138.8346  165.5157 C.3     1  UNL1        0.1157
     24 N         139.4775  140.3079  165.6959 N.am    1  UNL1       -0.2515
     25 C         139.1816  141.2530  164.5693 C.2     1  UNL1        0.2740
     26 O         138.6683  140.7249  163.2624 O.2     1  UNL1       -0.2705
     27 C         139.3991  142.7261  164.7494 C.3     1  UNL1        0.2900
     28 O         139.9124  143.2542  166.0562 O.3     1  UNL1       -0.4643
     29 C         140.2082  142.3091  167.1828 C.ar    1  UNL1        0.1530
     30 C         140.7215  142.8372  168.4896 C.ar    1  UNL1        0.0413
     31 C         141.0173  141.8920  169.6162 C.ar    1  UNL1        0.0398
     32 C         140.7999  140.4189  169.4361 C.ar    1  UNL1        0.1351
     33 O         141.0957  139.4738  170.5627 O.3     1  UNL1       -0.5055
     34 C         140.2866  139.8908  168.1292 C.ar    1  UNL1        0.0546
     35 C         139.9907  140.8359  167.0026 C.ar    1  UNL1        0.0912
     36 H         141.4163  139.8036  171.3790 H       1  UNL1        0.2922
@<TRIPOS>BOND
     1    10    11    2
     2    11    12    1
     3    12    13    1
     4    13    14    1
     5    14    15   ar
     6    15    16   ar
     7    16    17   ar
     8    17     9    1
     9     9     7    1
    10     7     1    1
    11     1     2    1
    12     2     3    1
    13     3     4    1
    14     4    22    1
    15    22    23    1
    16    23    24    1
    17    24    25   am
    18    25    26    2
    19    25    27    1
    20    27    28    1
    21    28    29    1
    22    29    30   ar
    23    30    31   ar
    24    31    32   ar
    25    32    33    1
    26    32    34   ar
    27    34    35   ar
    28     4     5    1
    29     5     6    1
    30    17    18   ar
    31    18    19   ar
    32    19    20    1
    33    20    11   am
    34    19    14   ar
    35     6     1    1
    36    35    24    1
    37    35    29   ar
    38     7     8    1
    39    33    36    1
    40    20    21    1
