@<TRIPOS>MOLECULE
*****
 31 34 0 0 0
SMALL
GASTEIGER

@<TRIPOS>ATOM
      1 C         141.1068  144.8682  159.0698 C.ar    1  UNL1        0.1222
      2 C         140.2720  145.6191  160.0644 C.ar    1  UNL1        0.0199
      3 C         140.2585  145.1961  161.5034 C.ar    1  UNL1        0.0014
      4 C         141.0799  144.0224  161.9479 C.ar    1  UNL1        0.0001
      5 C         141.9148  143.2715  160.9533 C.ar    1  UNL1        0.0014
      6 C         141.9283  143.6945  159.5143 C.ar    1  UNL1        0.0199
      7 C         141.0665  143.5994  163.3870 C.ar    1  UNL1       -0.0000
      8 C         142.3379  143.1626  164.0523 C.ar    1  UNL1       -0.0003
      9 C         142.3244  142.7397  165.4915 C.ar    1  UNL1       -0.0042
     10 C         141.0394  142.7536  166.2652 C.ar    1  UNL1       -0.0208
     11 C         139.7680  143.1904  165.5999 C.ar    1  UNL1       -0.0042
     12 C         139.7815  143.6133  164.1608 C.ar    1  UNL1       -0.0003
     13 C         141.0259  142.3307  167.7043 C.3     1  UNL1        0.0437
     14 C         141.0197  140.8730  168.0575 C.3     1  UNL1        0.0768
     15 N         141.5219  139.8602  167.0716 N.3     1  UNL1       -0.2737
     16 C         142.9127  139.3013  167.0127 C.3     1  UNL1        0.0721
     17 C         142.9719  138.3242  165.8761 C.3     1  UNL1        0.0187
     18 C         141.6177  138.2792  165.2326 C.3     1  UNL1        0.0174
     19 C         140.7216  139.2284  165.9714 C.3     1  UNL1        0.0576
     20 C         139.2785  139.4985  165.6640 C.3     1  UNL1        0.0173
     21 S         141.1203  145.2911  157.6307 S.O2    1  UNL1        0.0633
     22 O         142.2962  146.1816  157.9033 O.2     1  UNL1       -0.1528
     23 O         139.9445  144.4007  157.3580 O.2     1  UNL1       -0.1528
     24 C         140.2318  146.7352  155.5643 C.3     1  UNL1        0.1091
     25 C         140.5921  146.8423  154.1122 C.3     1  UNL1        0.0218
     26 C         141.7169  145.8873  153.8420 C.3     1  UNL1        0.0207
     27 C         142.0516  145.1900  155.1272 C.3     1  UNL1        0.0959
     28 N         141.1338  145.7140  156.1916 N.3     1  UNL1       -0.1544
     29 C         139.1579  147.5127  156.2659 C.3     1  UNL1        0.1598
     30 C         138.2988  149.9236  156.7129 C.3     1  UNL1        0.1742
     31 O         138.7540  148.8637  155.7541 O.3     1  UNL1       -0.3496
@<TRIPOS>BOND
     1    30    31    1
     2    31    29    1
     3    29    24    1
     4    24    25    1
     5    25    26    1
     6    26    27    1
     7    27    28    1
     8    28    21    1
     9    21    22    2
    10    21    23    2
    11    21     1    1
    12     1     2   ar
    13     2     3   ar
    14     3     4   ar
    15     4     7    1
    16     7     8   ar
    17     8     9   ar
    18     9    10   ar
    19    10    13    1
    20    13    14    1
    21    14    15    1
    22    15    16    1
    23    16    17    1
    24    17    18    1
    25    18    19    1
    26    19    20    1
    27    10    11   ar
    28    11    12   ar
    29     4     5   ar
    30     5     6   ar
    31    28    24    1
    32     6     1   ar
    33    12     7   ar
    34    19    15    1
@<TRIPOS>MOLECULE
*****
 31 34 0 0 0
SMALL
GASTEIGER

@<TRIPOS>ATOM
      1 C         138.8710  140.6118  160.2027 C.ar    1  UNL1        0.1222
      2 C         139.8758  141.4280  160.9604 C.ar    1  UNL1        0.0199
      3 C         139.9497  141.3275  162.4552 C.ar    1  UNL1        0.0014
      4 C         139.0188  140.4110  163.1923 C.ar    1  UNL1        0.0001
      5 C         138.0140  139.5948  162.4346 C.ar    1  UNL1        0.0014
      6 C         137.9401  139.6952  160.9398 C.ar    1  UNL1        0.0199
      7 C         139.0928  140.3106  164.6871 C.ar    1  UNL1       -0.0000
      8 C         138.3849  139.1967  165.4000 C.ar    1  UNL1       -0.0003
      9 C         138.4588  139.0963  166.8948 C.ar    1  UNL1       -0.0042
     10 C         139.2407  140.1099  167.6768 C.ar    1  UNL1       -0.0208
     11 C         139.9486  141.2238  166.9639 C.ar    1  UNL1       -0.0042
     12 C         139.8746  141.3241  165.4691 C.ar    1  UNL1       -0.0003
     13 C         139.3146  140.0095  169.1716 C.3     1  UNL1        0.0437
     14 C         140.6431  139.8393  169.8469 C.3     1  UNL1        0.0768
     15 N         141.5993  140.9927  169.9226 N.3     1  UNL1       -0.2737
     16 C         143.0783  140.9290  169.6810 C.3     1  UNL1        0.0721
     17 C         143.6374  142.3091  169.8622 C.3     1  UNL1        0.0187
     18 C         142.5039  143.2256  170.2159 C.3     1  UNL1        0.0174
     19 C         141.2443  142.4120  170.2532 C.3     1  UNL1        0.0576
     20 C         139.8708  142.9274  170.5662 C.3     1  UNL1        0.0173
     21 S         138.7971  140.7122  158.7079 S.O2    1  UNL1        0.0633
     22 O         137.4025  140.1608  158.7398 O.2     1  UNL1       -0.1528
     23 O         140.1917  141.2635  158.6760 O.2     1  UNL1       -0.1528
     24 C         139.0689  139.7262  156.2383 C.3     1  UNL1        0.1091
     25 C         138.8500  140.2592  154.8534 C.3     1  UNL1        0.0218
     26 C         138.3689  141.6750  154.9722 C.3     1  UNL1        0.0207
     27 C         138.2905  142.0170  156.4306 C.3     1  UNL1        0.0959
     28 N         138.7232  140.8126  157.2131 N.3     1  UNL1       -0.1544
     29 C         139.5493  138.3487  156.5872 C.3     1  UNL1        0.1598
     30 C         139.6729  136.5077  154.7580 C.3     1  UNL1        0.1742
     31 O         138.9542  137.1519  155.9062 O.3     1  UNL1       -0.3496
@<TRIPOS>BOND
     1    30    31    1
     2    31    29    1
     3    29    24    1
     4    24    25    1
     5    25    26    1
     6    26    27    1
     7    27    28    1
     8    28    21    1
     9    21    22    2
    10    21    23    2
    11    21     1    1
    12     1     2   ar
    13     2     3   ar
    14     3     4   ar
    15     4     7    1
    16     7     8   ar
    17     8     9   ar
    18     9    10   ar
    19    10    13    1
    20    13    14    1
    21    14    15    1
    22    15    16    1
    23    16    17    1
    24    17    18    1
    25    18    19    1
    26    19    20    1
    27    10    11   ar
    28    11    12   ar
    29     4     5   ar
    30     5     6   ar
    31    28    24    1
    32     6     1   ar
    33    12     7   ar
    34    19    15    1
@<TRIPOS>MOLECULE
*****
 31 34 0 0 0
SMALL
GASTEIGER

@<TRIPOS>ATOM
      1 C         141.3520  144.8904  159.2325 C.ar    1  UNL1        0.1222
      2 C         140.5749  145.4610  160.3817 C.ar    1  UNL1        0.0199
      3 C         140.8124  144.9536  161.7731 C.ar    1  UNL1        0.0014
      4 C         141.8270  143.8757  162.0154 C.ar    1  UNL1        0.0001
      5 C         142.6041  143.3052  160.8663 C.ar    1  UNL1        0.0014
      6 C         142.3666  143.8125  159.4748 C.ar    1  UNL1        0.0199
      7 C         142.0645  143.3684  163.4069 C.ar    1  UNL1       -0.0000
      8 C         143.4027  142.8034  163.7810 C.ar    1  UNL1       -0.0003
      9 C         143.6402  142.2961  165.1726 C.ar    1  UNL1       -0.0042
     10 C         142.5394  142.3538  166.1899 C.ar    1  UNL1       -0.0208
     11 C         141.2012  142.9188  165.8158 C.ar    1  UNL1       -0.0042
     12 C         140.9638  143.4261  164.4243 C.ar    1  UNL1       -0.0003
     13 C         142.7769  141.8465  167.5814 C.3     1  UNL1        0.0437
     14 C         142.2422  140.5067  167.9926 C.3     1  UNL1        0.0768
     15 N         141.0409  139.9340  167.3006 N.3     1  UNL1       -0.2737
     16 C         139.6190  140.0458  167.7652 C.3     1  UNL1        0.0721
     17 C         138.7499  139.3299  166.7742 C.3     1  UNL1        0.0187
     18 C         139.6346  138.7755  165.6972 C.3     1  UNL1        0.0174
     19 C         141.0505  139.1489  166.0225 C.3     1  UNL1        0.0576
     20 C         142.2631  138.7986  165.2120 C.3     1  UNL1        0.0173
     21 S         141.1145  145.3978  157.8410 S.O2    1  UNL1        0.0633
     22 O         142.3698  146.2145  157.9245 O.2     1  UNL1       -0.1528
     23 O         139.8591  144.5810  157.7575 O.2     1  UNL1       -0.1528
     24 C         141.5930  145.4521  155.2118 C.3     1  UNL1        0.1091
     25 C         141.0403  146.2214  154.0488 C.3     1  UNL1        0.0218
     26 C         139.9826  147.1500  154.5678 C.3     1  UNL1        0.0207
     27 C         139.8817  146.9544  156.0515 C.3     1  UNL1        0.0959
     28 N         140.8770  145.9051  156.4496 N.3     1  UNL1       -0.1544
     29 C         142.6722  144.4123  155.1481 C.3     1  UNL1        0.1598
     30 C         140.8716  142.5450  155.0033 C.3     1  UNL1        0.1742
     31 O         142.3103  142.9573  155.1031 O.3     1  UNL1       -0.3496
@<TRIPOS>BOND
     1    30    31    1
     2    31    29    1
     3    29    24    1
     4    24    25    1
     5    25    26    1
     6    26    27    1
     7    27    28    1
     8    28    21    1
     9    21    22    2
    10    21    23    2
    11    21     1    1
    12     1     2   ar
    13     2     3   ar
    14     3     4   ar
    15     4     7    1
    16     7     8   ar
    17     8     9   ar
    18     9    10   ar
    19    10    13    1
    20    13    14    1
    21    14    15    1
    22    15    16    1
    23    16    17    1
    24    17    18    1
    25    18    19    1
    26    19    20    1
    27    10    11   ar
    28    11    12   ar
    29     4     5   ar
    30     5     6   ar
    31    28    24    1
    32     6     1   ar
    33    12     7   ar
    34    19    15    1
@<TRIPOS>MOLECULE
*****
 31 34 0 0 0
SMALL
GASTEIGER

@<TRIPOS>ATOM
      1 C         139.9707  144.5540  157.8660 C.ar    1  UNL1        0.1222
      2 C         140.4652  145.0930  159.1755 C.ar    1  UNL1        0.0199
      3 C         140.1907  144.3447  160.4462 C.ar    1  UNL1        0.0014
      4 C         139.4216  143.0574  160.4073 C.ar    1  UNL1        0.0001
      5 C         138.9271  142.5184  159.0978 C.ar    1  UNL1        0.0014
      6 C         139.2016  143.2667  157.8271 C.ar    1  UNL1        0.0199
      7 C         139.1471  142.3091  161.6781 C.ar    1  UNL1       -0.0000
      8 C         140.1989  141.4144  162.2638 C.ar    1  UNL1       -0.0003
      9 C         139.9244  140.6661  163.5346 C.ar    1  UNL1       -0.0042
     10 C         138.5980  140.8126  164.2196 C.ar    1  UNL1       -0.0208
     11 C         137.5462  141.7074  163.6338 C.ar    1  UNL1       -0.0042
     12 C         137.8207  142.4556  162.3631 C.ar    1  UNL1       -0.0003
     13 C         138.3235  140.0644  165.4903 C.3     1  UNL1        0.0437
     14 C         139.4479  139.7444  166.4301 C.3     1  UNL1        0.0768
     15 N         139.6877  140.6068  167.6338 N.3     1  UNL1       -0.2737
     16 C         139.3088  140.2738  169.0465 C.3     1  UNL1        0.0721
     17 C         139.7355  141.4146  169.9220 C.3     1  UNL1        0.0187
     18 C         140.3781  142.4527  169.0504 C.3     1  UNL1        0.0174
     19 C         140.3485  141.9533  167.6362 C.3     1  UNL1        0.0576
     20 C         140.8855  142.6741  166.4354 C.3     1  UNL1        0.0173
     21 S         140.2452  145.3022  156.5952 S.O2    1  UNL1        0.0633
     22 O         139.0752  144.6260  155.9442 O.2     1  UNL1       -0.1528
     23 O         141.4151  145.9785  157.2462 O.2     1  UNL1       -0.1528
     24 C         139.8934  147.3501  154.9138 C.3     1  UNL1        0.1091
     25 C         140.4554  147.7334  153.5769 C.3     1  UNL1        0.0218
     26 C         141.4290  146.6706  153.1613 C.3     1  UNL1        0.0207
     27 C         141.4688  145.6306  154.2415 C.3     1  UNL1        0.0959
     28 N         140.5197  146.0505  155.3245 N.3     1  UNL1       -0.1544
     29 C         138.8826  148.1296  155.7015 C.3     1  UNL1        0.1598
     30 C         138.4911  150.5818  156.4658 C.3     1  UNL1        0.1742
     31 O         138.6185  149.5680  155.3677 O.3     1  UNL1       -0.3496
@<TRIPOS>BOND
     1    30    31    1
     2    31    29    1
     3    29    24    1
     4    24    25    1
     5    25    26    1
     6    26    27    1
     7    27    28    1
     8    28    21    1
     9    21    22    2
    10    21    23    2
    11    21     1    1
    12     1     2   ar
    13     2     3   ar
    14     3     4   ar
    15     4     7    1
    16     7     8   ar
    17     8     9   ar
    18     9    10   ar
    19    10    13    1
    20    13    14    1
    21    14    15    1
    22    15    16    1
    23    16    17    1
    24    17    18    1
    25    18    19    1
    26    19    20    1
    27    10    11   ar
    28    11    12   ar
    29     4     5   ar
    30     5     6   ar
    31    28    24    1
    32     6     1   ar
    33    12     7   ar
    34    19    15    1
@<TRIPOS>MOLECULE
*****
 31 34 0 0 0
SMALL
GASTEIGER

@<TRIPOS>ATOM
      1 C         141.2948  144.8256  159.6321 C.ar    1  UNL1        0.1222
      2 C         140.6493  145.4743  160.8205 C.ar    1  UNL1        0.0199
      3 C         140.9939  145.0135  162.2057 C.ar    1  UNL1        0.0014
      4 C         141.9839  143.9039  162.4025 C.ar    1  UNL1        0.0001
      5 C         142.6294  143.2552  161.2140 C.ar    1  UNL1        0.0014
      6 C         142.2849  143.7161  159.8288 C.ar    1  UNL1        0.0199
      7 C         142.3285  143.4431  163.7878 C.ar    1  UNL1       -0.0000
      8 C         143.7547  143.4634  164.2520 C.ar    1  UNL1       -0.0003
      9 C         144.0992  143.0026  165.6373 C.ar    1  UNL1       -0.0042
     10 C         143.0175  142.5214  166.5583 C.ar    1  UNL1       -0.0208
     11 C         141.5912  142.5011  166.0941 C.ar    1  UNL1       -0.0042
     12 C         141.2467  142.9620  164.7089 C.ar    1  UNL1       -0.0003
     13 C         143.3619  142.0606  167.9436 C.3     1  UNL1        0.0437
     14 C         142.5559  142.5382  169.1150 C.3     1  UNL1        0.0768
     15 N         141.3570  141.7589  169.5681 N.3     1  UNL1       -0.2737
     16 C         139.9601  142.2888  169.7023 C.3     1  UNL1        0.0721
     17 C         139.0842  141.1704  170.1837 C.3     1  UNL1        0.0187
     18 C         139.9398  139.9491  170.3472 C.3     1  UNL1        0.0174
     19 C         141.3444  140.3129  169.9667 C.3     1  UNL1        0.0576
     20 C         142.5285  139.3922  169.9822 C.3     1  UNL1        0.0173
     21 S         140.9503  145.2865  158.2468 S.O2    1  UNL1        0.0633
     22 O         139.7348  144.4075  158.2566 O.2     1  UNL1       -0.1528
     23 O         142.1657  146.1654  158.2369 O.2     1  UNL1       -0.1528
     24 C         141.1644  145.1943  155.5840 C.3     1  UNL1        0.1091
     25 C         140.5461  145.9473  154.4435 C.3     1  UNL1        0.0218
     26 C         139.6053  146.9657  155.0162 C.3     1  UNL1        0.0207
     27 C         139.6423  146.8421  156.5106 C.3     1  UNL1        0.0959
     28 N         140.6058  145.7473  156.8615 N.3     1  UNL1       -0.1544
     29 C         142.1654  144.0834  155.4673 C.3     1  UNL1        0.1598
     30 C         144.1132  144.4252  153.7822 C.3     1  UNL1        0.1742
     31 O         142.8052  143.7861  154.1435 O.3     1  UNL1       -0.3496
@<TRIPOS>BOND
     1    30    31    1
     2    31    29    1
     3    29    24    1
     4    24    25    1
     5    25    26    1
     6    26    27    1
     7    27    28    1
     8    28    21    1
     9    21    22    2
    10    21    23    2
    11    21     1    1
    12     1     2   ar
    13     2     3   ar
    14     3     4   ar
    15     4     7    1
    16     7     8   ar
    17     8     9   ar
    18     9    10   ar
    19    10    13    1
    20    13    14    1
    21    14    15    1
    22    15    16    1
    23    16    17    1
    24    17    18    1
    25    18    19    1
    26    19    20    1
    27    10    11   ar
    28    11    12   ar
    29     4     5   ar
    30     5     6   ar
    31    28    24    1
    32     6     1   ar
    33    12     7   ar
    34    19    15    1
@<TRIPOS>MOLECULE
*****
 31 34 0 0 0
SMALL
GASTEIGER

@<TRIPOS>ATOM
      1 C         139.7636  139.2225  160.7203 C.ar    1  UNL1        0.1222
      2 C         138.5850  138.6227  161.4281 C.ar    1  UNL1        0.0199
      3 C         138.4354  138.7912  162.9111 C.ar    1  UNL1        0.0014
      4 C         139.4644  139.5595  163.6862 C.ar    1  UNL1        0.0001
      5 C         140.6431  140.1592  162.9784 C.ar    1  UNL1        0.0014
      6 C         140.7927  139.9907  161.4955 C.ar    1  UNL1        0.0199
      7 C         139.3148  139.7280  165.1693 C.ar    1  UNL1       -0.0000
      8 C         140.1170  140.7702  165.8904 C.ar    1  UNL1       -0.0003
      9 C         139.9674  140.9387  167.3734 C.ar    1  UNL1       -0.0042
     10 C         139.0155  140.0649  168.1352 C.ar    1  UNL1       -0.0208
     11 C         138.2133  139.0225  167.4140 C.ar    1  UNL1       -0.0042
     12 C         138.3629  138.8541  165.9311 C.ar    1  UNL1       -0.0003
     13 C         138.8658  140.2333  169.6182 C.3     1  UNL1        0.0437
     14 C         140.0522  140.0490  170.5174 C.3     1  UNL1        0.0768
     15 N         141.2566  140.9292  170.3600 N.3     1  UNL1       -0.2737
     16 C         141.3989  142.3296  170.8781 C.3     1  UNL1        0.0721
     17 C         142.7604  142.8295  170.4952 C.3     1  UNL1        0.0187
     18 C         143.4594  141.7378  169.7403 C.3     1  UNL1        0.0174
     19 C         142.5300  140.5634  169.6568 C.3     1  UNL1        0.0576
     20 C         142.8228  139.2533  168.9875 C.3     1  UNL1        0.0173
     21 S         139.9132  139.0540  159.2373 S.O2    1  UNL1        0.0633
     22 O         138.4655  139.3997  159.0519 O.2     1  UNL1       -0.1528
     23 O         141.3610  138.7083  159.4227 O.2     1  UNL1       -0.1528
     24 C         140.5102  139.9417  156.7877 C.3     1  UNL1        0.1091
     25 C         140.5153  139.3403  155.4136 C.3     1  UNL1        0.0218
     26 C         140.0712  137.9123  155.5310 C.3     1  UNL1        0.0207
     27 C         139.7916  137.6313  156.9776 C.3     1  UNL1        0.0959
     28 N         140.0629  138.8855  157.7544 N.3     1  UNL1       -0.1544
     29 C         140.8864  141.3518  157.1343 C.3     1  UNL1        0.1598
     30 C         139.2587  142.7904  158.5596 C.3     1  UNL1        0.1742
     31 O         139.8272  142.4101  157.2246 O.3     1  UNL1       -0.3496
@<TRIPOS>BOND
     1    30    31    1
     2    31    29    1
     3    29    24    1
     4    24    25    1
     5    25    26    1
     6    26    27    1
     7    27    28    1
     8    28    21    1
     9    21    22    2
    10    21    23    2
    11    21     1    1
    12     1     2   ar
    13     2     3   ar
    14     3     4   ar
    15     4     7    1
    16     7     8   ar
    17     8     9   ar
    18     9    10   ar
    19    10    13    1
    20    13    14    1
    21    14    15    1
    22    15    16    1
    23    16    17    1
    24    17    18    1
    25    18    19    1
    26    19    20    1
    27    10    11   ar
    28    11    12   ar
    29     4     5   ar
    30     5     6   ar
    31    28    24    1
    32     6     1   ar
    33    12     7   ar
    34    19    15    1
@<TRIPOS>MOLECULE
*****
 31 34 0 0 0
SMALL
GASTEIGER

@<TRIPOS>ATOM
      1 C         141.3428  144.9229  159.2046 C.ar    1  UNL1        0.1222
      2 C         140.5645  145.4808  160.3592 C.ar    1  UNL1        0.0199
      3 C         140.8360  144.9938  161.7517 C.ar    1  UNL1        0.0014
      4 C         141.8857  143.9491  161.9896 C.ar    1  UNL1        0.0001
      5 C         142.6640  143.3913  160.8351 C.ar    1  UNL1        0.0014
      6 C         142.3925  143.8782  159.4425 C.ar    1  UNL1        0.0199
      7 C         142.1572  143.4622  163.3823 C.ar    1  UNL1       -0.0000
      8 C         143.5653  143.1858  163.8190 C.ar    1  UNL1       -0.0003
      9 C         143.8367  142.6989  165.2117 C.ar    1  UNL1       -0.0042
     10 C         142.7000  142.4884  166.1674 C.ar    1  UNL1       -0.0208
     11 C         141.2918  142.7648  165.7306 C.ar    1  UNL1       -0.0042
     12 C         141.0204  143.2516  164.3381 C.ar    1  UNL1       -0.0003
     13 C         142.9714  142.0015  167.5600 C.3     1  UNL1        0.0437
     14 C         142.5001  140.6422  167.9844 C.3     1  UNL1        0.0768
     15 N         141.3595  140.5114  168.9498 N.3     1  UNL1       -0.2737
     16 C         141.4435  140.6639  170.4397 C.3     1  UNL1        0.0721
     17 C         140.0706  140.4519  171.0055 C.3     1  UNL1        0.0187
     18 C         139.1381  140.1683  169.8653 C.3     1  UNL1        0.0174
     19 C         139.9347  140.2051  168.5948 C.3     1  UNL1        0.0576
     20 C         139.4002  139.9758  167.2122 C.3     1  UNL1        0.0173
     21 S         141.0713  145.4098  157.8120 S.O2    1  UNL1        0.0633
     22 O         139.8314  144.5675  157.7591 O.2     1  UNL1       -0.1528
     23 O         142.3113  146.2522  157.8649 O.2     1  UNL1       -0.1528
     24 C         139.7874  146.9323  156.0292 C.3     1  UNL1        0.1091
     25 C         139.8551  147.1092  154.5412 C.3     1  UNL1        0.0218
     26 C         140.9096  146.1829  154.0118 C.3     1  UNL1        0.0207
     27 C         141.4935  145.4336  155.1726 C.3     1  UNL1        0.0959
     28 N         140.8000  145.8968  156.4194 N.3     1  UNL1       -0.1544
     29 C         138.8684  147.6627  156.9630 C.3     1  UNL1        0.1598
     30 C         138.7363  149.7623  155.4382 C.3     1  UNL1        0.1742
     31 O         138.6502  149.1378  156.7993 O.3     1  UNL1       -0.3496
@<TRIPOS>BOND
     1    30    31    1
     2    31    29    1
     3    29    24    1
     4    24    25    1
     5    25    26    1
     6    26    27    1
     7    27    28    1
     8    28    21    1
     9    21    22    2
    10    21    23    2
    11    21     1    1
    12     1     2   ar
    13     2     3   ar
    14     3     4   ar
    15     4     7    1
    16     7     8   ar
    17     8     9   ar
    18     9    10   ar
    19    10    13    1
    20    13    14    1
    21    14    15    1
    22    15    16    1
    23    16    17    1
    24    17    18    1
    25    18    19    1
    26    19    20    1
    27    10    11   ar
    28    11    12   ar
    29     4     5   ar
    30     5     6   ar
    31    28    24    1
    32     6     1   ar
    33    12     7   ar
    34    19    15    1
@<TRIPOS>MOLECULE
*****
 31 34 0 0 0
SMALL
GASTEIGER

@<TRIPOS>ATOM
      1 C         141.1181  138.0852  158.0177 C.ar    1  UNL1        0.1222
      2 C         140.0622  138.5004  158.9988 C.ar    1  UNL1        0.0199
      3 C         140.3902  138.5920  160.4596 C.ar    1  UNL1        0.0014
      4 C         141.7741  138.2683  160.9393 C.ar    1  UNL1        0.0001
      5 C         142.8300  137.8531  159.9582 C.ar    1  UNL1        0.0014
      6 C         142.5020  137.7615  158.4974 C.ar    1  UNL1        0.0199
      7 C         142.1020  138.3599  162.4002 C.ar    1  UNL1       -0.0000
      8 C         143.2303  139.2335  162.8622 C.ar    1  UNL1       -0.0003
      9 C         143.5583  139.3251  164.3231 C.ar    1  UNL1       -0.0042
     10 C         142.7578  138.5430  165.3219 C.ar    1  UNL1       -0.0208
     11 C         141.6294  137.6693  164.8598 C.ar    1  UNL1       -0.0042
     12 C         141.3015  137.5778  163.3990 C.ar    1  UNL1       -0.0003
     13 C         143.0857  138.6345  166.7827 C.3     1  UNL1        0.0437
     14 C         142.8162  139.9047  167.5337 C.3     1  UNL1        0.0768
     15 N         141.6197  140.0050  168.4328 N.3     1  UNL1       -0.2737
     16 C         141.6285  139.8892  169.9283 C.3     1  UNL1        0.0721
     17 C         140.2186  140.0513  170.4141 C.3     1  UNL1        0.0187
     18 C         139.3385  140.2672  169.2188 C.3     1  UNL1        0.0174
     19 C         140.2044  140.2386  167.9943 C.3     1  UNL1        0.0576
     20 C         139.7370  140.4129  166.5797 C.3     1  UNL1        0.0173
     21 S         140.7902  137.9936  156.5568 S.O2    1  UNL1        0.0633
     22 O         142.2172  138.3064  156.2168 O.2     1  UNL1       -0.1528
     23 O         139.3631  137.6808  156.8968 O.2     1  UNL1       -0.1528
     24 C         140.5151  136.6600  154.2567 C.3     1  UNL1        0.1091
     25 C         140.1094  137.0267  152.8600 C.3     1  UNL1        0.0218
     26 C         139.8056  138.4955  152.8360 C.3     1  UNL1        0.0207
     27 C         140.0237  139.0364  154.2180 C.3     1  UNL1        0.0959
     28 N         140.4622  137.9020  155.0960 N.3     1  UNL1       -0.1544
     29 C         140.9054  135.2914  154.7308 C.3     1  UNL1        0.1598
     30 C         142.5405  133.8684  156.1632 C.3     1  UNL1        0.1742
     31 O         142.2813  135.0511  155.2777 O.3     1  UNL1       -0.3496
@<TRIPOS>BOND
     1    30    31    1
     2    31    29    1
     3    29    24    1
     4    24    25    1
     5    25    26    1
     6    26    27    1
     7    27    28    1
     8    28    21    1
     9    21    22    2
    10    21    23    2
    11    21     1    1
    12     1     2   ar
    13     2     3   ar
    14     3     4   ar
    15     4     7    1
    16     7     8   ar
    17     8     9   ar
    18     9    10   ar
    19    10    13    1
    20    13    14    1
    21    14    15    1
    22    15    16    1
    23    16    17    1
    24    17    18    1
    25    18    19    1
    26    19    20    1
    27    10    11   ar
    28    11    12   ar
    29     4     5   ar
    30     5     6   ar
    31    28    24    1
    32     6     1   ar
    33    12     7   ar
    34    19    15    1
@<TRIPOS>MOLECULE
*****
 31 34 0 0 0
SMALL
GASTEIGER

@<TRIPOS>ATOM
      1 C         139.5166  138.6508  156.9160 C.ar    1  UNL1        0.1222
      2 C         138.7828  139.9444  156.7208 C.ar    1  UNL1        0.0199
      3 C         138.4794  140.8199  157.9004 C.ar    1  UNL1        0.0014
      4 C         138.9099  140.4018  159.2751 C.ar    1  UNL1        0.0001
      5 C         139.6437  139.1082  159.4703 C.ar    1  UNL1        0.0014
      6 C         139.9471  138.2327  158.2907 C.ar    1  UNL1        0.0199
      7 C         138.6065  141.2773  160.4547 C.ar    1  UNL1       -0.0000
      8 C         139.1216  142.6855  160.4957 C.ar    1  UNL1       -0.0003
      9 C         138.8182  143.5611  161.6753 C.ar    1  UNL1       -0.0042
     10 C         137.9997  143.0284  162.8139 C.ar    1  UNL1       -0.0208
     11 C         137.4846  141.6202  162.7729 C.ar    1  UNL1       -0.0042
     12 C         137.7880  140.7447  161.5933 C.ar    1  UNL1       -0.0003
     13 C         137.6963  143.9039  163.9935 C.3     1  UNL1        0.0437
     14 C         138.8118  144.5896  164.7251 C.3     1  UNL1        0.0768
     15 N         140.1024  143.8663  164.9730 N.3     1  UNL1       -0.2737
     16 C         140.2948  142.6958  165.8912 C.3     1  UNL1        0.0721
     17 C         141.7383  142.2926  165.8320 C.3     1  UNL1        0.0187
     18 C         142.4381  143.2139  164.8771 C.3     1  UNL1        0.0174
     19 C         141.4270  144.1864  164.3463 C.3     1  UNL1        0.0576
     20 C         141.6938  145.2861  163.3616 C.3     1  UNL1        0.0173
     21 S         139.8200  137.7752  155.7363 S.O2    1  UNL1        0.0633
     22 O         141.0567  138.5774  155.4590 O.2     1  UNL1       -0.1528
     23 O         138.5833  136.9731  156.0137 O.2     1  UNL1       -0.1528
     24 C         140.9967  135.6803  154.5654 C.3     1  UNL1        0.1091
     25 C         141.0197  135.1167  153.1755 C.3     1  UNL1        0.0218
     26 C         140.1605  135.9879  152.3078 C.3     1  UNL1        0.0207
     27 C         139.6065  137.0898  153.1615 C.3     1  UNL1        0.0959
     28 N         140.1233  136.8997  154.5568 N.3     1  UNL1       -0.1544
     29 C         141.7202  135.1223  155.7551 C.3     1  UNL1        0.1598
     30 C         144.0687  136.2198  155.5813 C.3     1  UNL1        0.1742
     31 O         142.8420  135.8961  156.3816 O.3     1  UNL1       -0.3496
@<TRIPOS>BOND
     1    30    31    1
     2    31    29    1
     3    29    24    1
     4    24    25    1
     5    25    26    1
     6    26    27    1
     7    27    28    1
     8    28    21    1
     9    21    22    2
    10    21    23    2
    11    21     1    1
    12     1     2   ar
    13     2     3   ar
    14     3     4   ar
    15     4     7    1
    16     7     8   ar
    17     8     9   ar
    18     9    10   ar
    19    10    13    1
    20    13    14    1
    21    14    15    1
    22    15    16    1
    23    16    17    1
    24    17    18    1
    25    18    19    1
    26    19    20    1
    27    10    11   ar
    28    11    12   ar
    29     4     5   ar
    30     5     6   ar
    31    28    24    1
    32     6     1   ar
    33    12     7   ar
    34    19    15    1
