@<TRIPOS>MOLECULE
*****
 31 35 0 0 0
SMALL
GASTEIGER

@<TRIPOS>ATOM
      1 C         143.9144  143.0047  166.0100 C.3     1  UNL1        0.0285
      2 C         142.7902  142.2039  165.4226 C.3     1  UNL1        0.1321
      3 C         142.6283  142.1183  163.9338 C.3     1  UNL1        0.2279
      4 O         141.5041  141.3176  163.3465 O.3     1  UNL1       -0.4707
      5 C         140.5419  140.6024  164.2478 C.ar    1  UNL1        0.1675
      6 C         139.4177  139.8016  163.6605 C.ar    1  UNL1        0.0844
      7 C         138.4555  139.0864  164.5618 C.ar    1  UNL1        0.0280
      8 C         138.6173  139.1719  166.0507 C.ar    1  UNL1        0.0712
      9 C         139.7415  139.9727  166.6380 C.ar    1  UNL1        0.0288
     10 C         139.9034  140.0583  168.1268 C.ar    1  UNL1        0.0081
     11 C         141.0276  140.8591  168.7142 C.ar    1  UNL1        0.0702
     12 C         141.9898  141.5743  167.8128 C.ar    1  UNL1        0.2620
     13 O         143.1140  142.3751  168.4002 O.2     1  UNL1       -0.2669
     14 N         141.8280  141.4887  166.3240 N.ar    1  UNL1       -0.2909
     15 C         140.7038  140.6879  165.7366 C.ar    1  UNL1        0.0985
     16 N         139.2558  139.7160  162.1717 N.pl3   1  UNL1       -0.3050
     17 C         139.5308  138.5102  161.3227 C.3     1  UNL1        0.0910
     18 C         139.2355  138.8701  159.8968 C.3     1  UNL1        0.0244
     19 C         138.7779  140.2983  159.8644 C.3     1  UNL1        0.0344
     20 C         138.7905  140.8211  161.2704 C.3     1  UNL1        0.0921
     21 C         138.3780  141.0685  158.6410 C.3     1  UNL1        0.0406
     22 N         138.1204  139.9353  157.6925 N.3     1  UNL1       -0.3231
     23 C         138.0675  142.2321  157.7469 C.3     1  UNL1        0.0156
     24 C         138.4967  142.4691  159.1646 C.3     1  UNL1        0.0156
     25 H         138.2932  139.0490  158.1668 H       1  UNL1        0.1188
     26 H         138.7420  140.0173  156.8880 H       1  UNL1        0.1188
     27 C         141.1894  140.9446  170.2030 C.2     1  UNL1        0.0775
     28 O         140.1597  141.6560  171.0297 O.co2   1  UNL1       -0.5444
     29 O         142.3811  140.3188  170.8650 O.co2   1  UNL1       -0.5444
     30 C         137.6551  138.4567  166.9520 C.1     1  UNL1        0.1005
     31 N         136.6927  137.7415  167.8534 N.1     1  UNL1       -0.1908
@<TRIPOS>UNITY_ATOM_ATTR
28 1
charge -1
@<TRIPOS>BOND
     1     2     1    1
     2     2     3    1
     3     3     4    1
     4     4     5    1
     5     5     6   ar
     6     6    16    1
     7    16    17    1
     8    17    18    1
     9    18    19    1
    10    19    21    1
    11    21    22    1
    12    21    23    1
    13    23    24    1
    14    19    20    1
    15     6     7   ar
    16     7     8   ar
    17     8    30    1
    18    30    31    3
    19     8     9   ar
    20     9    10   ar
    21    10    11   ar
    22    11    27    1
    23    27    28   ar
    24    27    29   ar
    25    11    12   ar
    26    12    13    2
    27    12    14   ar
    28    14    15   ar
    29    14     2    1
    30    15     5   ar
    31    20    16    1
    32    15     9   ar
    33    24    21    1
    34    22    25    1
    35    22    26    1
@<TRIPOS>MOLECULE
*****
 31 35 0 0 0
SMALL
GASTEIGER

@<TRIPOS>ATOM
      1 C         144.0364  143.1171  165.9931 C.3     1  UNL1        0.0285
      2 C         142.9683  142.2585  165.3831 C.3     1  UNL1        0.1321
      3 C         142.9041  142.0857  163.8945 C.3     1  UNL1        0.2279
      4 O         141.8360  141.2271  163.2845 O.3     1  UNL1       -0.4707
      5 C         140.8322  140.5413  164.1631 C.ar    1  UNL1        0.1675
      6 C         139.7642  139.6828  163.5531 C.ar    1  UNL1        0.0844
      7 C         138.7604  138.9970  164.4317 C.ar    1  UNL1        0.0280
      8 C         138.8246  139.1697  165.9204 C.ar    1  UNL1        0.0712
      9 C         139.8926  140.0283  166.5304 C.ar    1  UNL1        0.0288
     10 C         139.9569  140.2011  168.0190 C.ar    1  UNL1        0.0081
     11 C         141.0249  141.0597  168.6290 C.ar    1  UNL1        0.0702
     12 C         142.0287  141.7455  167.7504 C.ar    1  UNL1        0.2620
     13 O         143.0968  142.6040  168.3604 O.2     1  UNL1       -0.2669
     14 N         141.9645  141.5727  166.2617 N.ar    1  UNL1       -0.2909
     15 C         140.8965  140.7141  165.6517 C.ar    1  UNL1        0.0985
     16 N         139.6999  139.5100  162.0645 N.pl3   1  UNL1       -0.3050
     17 C         138.5951  139.9860  161.1685 C.3     1  UNL1        0.0910
     18 C         138.9415  139.6011  159.7607 C.3     1  UNL1        0.0244
     19 C         140.2605  138.8872  159.7866 C.3     1  UNL1        0.0344
     20 C         140.7292  138.8309  161.2105 C.3     1  UNL1        0.0921
     21 C         140.9838  138.3278  158.5976 C.3     1  UNL1        0.0406
     22 N         142.3855  138.3070  159.1314 N.3     1  UNL1       -0.3231
     23 C         141.2203  137.7756  157.2232 C.3     1  UNL1        0.0156
     24 C         139.8334  138.1543  157.6508 C.3     1  UNL1        0.0156
     25 H         142.3908  138.6641  160.0868 H       1  UNL1        0.1188
     26 H         142.9809  138.8929  158.5461 H       1  UNL1        0.1188
     27 C         141.0891  141.2324  170.1177 C.2     1  UNL1        0.0775
     28 O         142.2613  140.6966  170.8851 O.co2   1  UNL1       -0.5444
     29 O         139.9811  141.9410  170.8390 O.co2   1  UNL1       -0.5444
     30 C         137.8208  138.4839  166.7990 C.1     1  UNL1        0.1005
     31 N         136.8168  137.7981  167.6777 N.1     1  UNL1       -0.1908
@<TRIPOS>UNITY_ATOM_ATTR
28 1
charge -1
@<TRIPOS>BOND
     1     2     1    1
     2     2     3    1
     3     3     4    1
     4     4     5    1
     5     5     6   ar
     6     6    16    1
     7    16    17    1
     8    17    18    1
     9    18    19    1
    10    19    21    1
    11    21    22    1
    12    21    23    1
    13    23    24    1
    14    19    20    1
    15     6     7   ar
    16     7     8   ar
    17     8    30    1
    18    30    31    3
    19     8     9   ar
    20     9    10   ar
    21    10    11   ar
    22    11    27    1
    23    27    28   ar
    24    27    29   ar
    25    11    12   ar
    26    12    13    2
    27    12    14   ar
    28    14    15   ar
    29    14     2    1
    30    15     5   ar
    31    20    16    1
    32    15     9   ar
    33    24    21    1
    34    22    25    1
    35    22    26    1
@<TRIPOS>MOLECULE
*****
 31 35 0 0 0
SMALL
GASTEIGER

@<TRIPOS>ATOM
      1 C         137.8196  138.7564  167.2244 C.3     1  UNL1        0.0285
      2 C         138.7798  139.3414  166.2316 C.3     1  UNL1        0.1321
      3 C         138.6234  139.0413  164.7703 C.3     1  UNL1        0.2279
      4 O         139.5836  139.6264  163.7774 O.3     1  UNL1       -0.4707
      5 C         140.7002  140.5116  164.2459 C.ar    1  UNL1        0.1675
      6 C         141.6604  141.0967  163.2531 C.ar    1  UNL1        0.0844
      7 C         142.7770  141.9819  163.7215 C.ar    1  UNL1        0.0280
      8 C         142.9335  142.2821  165.1829 C.ar    1  UNL1        0.0712
      9 C         141.9733  141.6970  166.1757 C.ar    1  UNL1        0.0288
     10 C         142.1297  141.9972  167.6370 C.ar    1  UNL1        0.0081
     11 C         141.1695  141.4121  168.6298 C.ar    1  UNL1        0.0702
     12 C         140.0529  140.5269  168.1614 C.ar    1  UNL1        0.2620
     13 O         139.0927  139.9418  169.1542 O.2     1  UNL1       -0.2669
     14 N         139.8965  140.2267  166.7000 N.ar    1  UNL1       -0.2909
     15 C         140.8566  140.8118  165.7072 C.ar    1  UNL1        0.0985
     16 N         141.5040  140.7965  161.7918 N.pl3   1  UNL1       -0.3050
     17 C         140.6179  141.5321  160.8305 C.3     1  UNL1        0.0910
     18 C         140.7724  140.8983  159.4797 C.3     1  UNL1        0.0244
     19 C         141.7540  139.7710  159.6062 C.3     1  UNL1        0.0344
     20 C         142.2061  139.7082  161.0351 C.3     1  UNL1        0.0921
     21 C         142.2043  138.8657  158.4983 C.3     1  UNL1        0.0406
     22 N         143.6839  139.1070  158.5498 N.3     1  UNL1       -0.3231
     23 C         142.1408  137.8765  157.3725 C.3     1  UNL1        0.0156
     24 C         140.8812  138.3099  158.0620 C.3     1  UNL1        0.0156
     25 H         143.8933  139.7784  159.2886 H       1  UNL1        0.1188
     26 H         143.9993  139.4782  157.6537 H       1  UNL1        0.1188
     27 C         141.3260  141.7123  170.0912 C.2     1  UNL1        0.0775
     28 O         140.8908  143.0408  170.6347 O.co2   1  UNL1       -0.5444
     29 O         141.9177  140.6838  171.0089 O.co2   1  UNL1       -0.5444
     30 C         144.0501  143.1673  165.6513 C.1     1  UNL1        0.1005
     31 N         145.1668  144.0526  166.1198 N.1     1  UNL1       -0.1908
@<TRIPOS>UNITY_ATOM_ATTR
28 1
charge -1
@<TRIPOS>BOND
     1     2     1    1
     2     2     3    1
     3     3     4    1
     4     4     5    1
     5     5     6   ar
     6     6    16    1
     7    16    17    1
     8    17    18    1
     9    18    19    1
    10    19    21    1
    11    21    22    1
    12    21    23    1
    13    23    24    1
    14    19    20    1
    15     6     7   ar
    16     7     8   ar
    17     8    30    1
    18    30    31    3
    19     8     9   ar
    20     9    10   ar
    21    10    11   ar
    22    11    27    1
    23    27    28   ar
    24    27    29   ar
    25    11    12   ar
    26    12    13    2
    27    12    14   ar
    28    14    15   ar
    29    14     2    1
    30    15     5   ar
    31    20    16    1
    32    15     9   ar
    33    24    21    1
    34    22    25    1
    35    22    26    1
@<TRIPOS>MOLECULE
*****
 31 35 0 0 0
SMALL
GASTEIGER

@<TRIPOS>ATOM
      1 C         139.4847  144.1104  165.8424 C.3     1  UNL1        0.0285
      2 C         140.3302  143.0472  165.2063 C.3     1  UNL1        0.1321
      3 C         140.4663  142.9903  163.7136 C.3     1  UNL1        0.2279
      4 O         141.3118  141.9271  163.0774 O.3     1  UNL1       -0.4707
      5 C         142.0212  140.9207  163.9340 C.ar    1  UNL1        0.1675
      6 C         142.8667  139.8574  163.2979 C.ar    1  UNL1        0.0844
      7 C         143.5762  138.8510  164.1545 C.ar    1  UNL1        0.0280
      8 C         143.4401  138.9078  165.6473 C.ar    1  UNL1        0.0712
      9 C         142.5946  139.9711  166.2834 C.ar    1  UNL1        0.0288
     10 C         142.4586  140.0279  167.7761 C.ar    1  UNL1        0.0081
     11 C         141.6131  141.0912  168.4122 C.ar    1  UNL1        0.0702
     12 C         140.9036  142.0976  167.5556 C.ar    1  UNL1        0.2620
     13 O         140.0581  143.1608  168.1918 O.2     1  UNL1       -0.2669
     14 N         141.0397  142.0408  166.0628 N.ar    1  UNL1       -0.2909
     15 C         141.8852  140.9775  165.4267 C.ar    1  UNL1        0.0985
     16 N         143.0027  139.8006  161.8052 N.pl3   1  UNL1       -0.3050
     17 C         142.3615  138.7916  160.8992 C.3     1  UNL1        0.0910
     18 C         142.7663  139.1101  159.4904 C.3     1  UNL1        0.0244
     19 C         143.6578  140.3160  159.5257 C.3     1  UNL1        0.0344
     20 C         143.8039  140.7427  160.9564 C.3     1  UNL1        0.0921
     21 C         144.2919  140.9787  158.3388 C.3     1  UNL1        0.0406
     22 N         144.3937  139.8059  157.4091 N.3     1  UNL1       -0.3231
     23 C         144.8906  142.0487  157.4748 C.3     1  UNL1        0.0156
     24 C         144.4103  142.3816  158.8563 C.3     1  UNL1        0.0156
     25 H         144.0155  138.9761  157.8660 H       1  UNL1        0.1188
     26 H         145.3721  139.6460  157.1694 H       1  UNL1        0.1188
     27 C         141.4771  141.1480  169.9050 C.2     1  UNL1        0.0775
     28 O         140.5372  140.2144  170.6085 O.co2   1  UNL1       -0.5444
     29 O         142.2810  142.1384  170.6942 O.co2   1  UNL1       -0.5444
     30 C         144.1496  137.9014  166.5039 C.1     1  UNL1        0.1005
     31 N         144.8591  136.8949  167.3605 N.1     1  UNL1       -0.1908
@<TRIPOS>UNITY_ATOM_ATTR
28 1
charge -1
@<TRIPOS>BOND
     1     2     1    1
     2     2     3    1
     3     3     4    1
     4     4     5    1
     5     5     6   ar
     6     6    16    1
     7    16    17    1
     8    17    18    1
     9    18    19    1
    10    19    21    1
    11    21    22    1
    12    21    23    1
    13    23    24    1
    14    19    20    1
    15     6     7   ar
    16     7     8   ar
    17     8    30    1
    18    30    31    3
    19     8     9   ar
    20     9    10   ar
    21    10    11   ar
    22    11    27    1
    23    27    28   ar
    24    27    29   ar
    25    11    12   ar
    26    12    13    2
    27    12    14   ar
    28    14    15   ar
    29    14     2    1
    30    15     5   ar
    31    20    16    1
    32    15     9   ar
    33    24    21    1
    34    22    25    1
    35    22    26    1
@<TRIPOS>MOLECULE
*****
 31 35 0 0 0
SMALL
GASTEIGER

@<TRIPOS>ATOM
      1 C         143.9787  137.9474  161.1275 C.3     1  UNL1        0.0285
      2 C         143.0219  138.7377  161.9701 C.3     1  UNL1        0.1321
      3 C         142.5489  138.1885  163.2833 C.3     1  UNL1        0.2279
      4 O         141.5921  138.9788  164.1259 O.3     1  UNL1       -0.4707
      5 C         141.1083  140.3183  163.6553 C.ar    1  UNL1        0.1675
      6 C         140.1515  141.1086  164.4979 C.ar    1  UNL1        0.0844
      7 C         139.6677  142.4481  164.0272 C.ar    1  UNL1        0.0280
      8 C         140.1406  142.9974  162.7139 C.ar    1  UNL1        0.0712
      9 C         141.0974  142.2071  161.8714 C.ar    1  UNL1        0.0288
     10 C         141.5704  142.7564  160.5581 C.ar    1  UNL1        0.0081
     11 C         142.5272  141.9661  159.7155 C.ar    1  UNL1        0.0702
     12 C         143.0111  140.6266  160.1862 C.ar    1  UNL1        0.2620
     13 O         143.9679  139.8363  159.3436 O.2     1  UNL1       -0.2669
     14 N         142.5381  140.0773  161.4995 N.ar    1  UNL1       -0.2909
     15 C         141.5813  140.8676  162.3420 C.ar    1  UNL1        0.0985
     16 N         139.6785  140.5594  165.8111 N.pl3   1  UNL1       -0.3050
     17 C         138.5778  139.5585  166.0032 C.3     1  UNL1        0.0910
     18 C         138.4421  139.2951  167.4736 C.3     1  UNL1        0.0244
     19 C         139.4590  140.1331  168.1904 C.3     1  UNL1        0.0344
     20 C         140.2231  140.9145  167.1628 C.3     1  UNL1        0.0921
     21 C         139.6740  140.1814  169.6741 C.3     1  UNL1        0.0406
     22 N         138.2625  139.9988  170.1479 N.3     1  UNL1       -0.3231
     23 C         140.3792  140.2930  170.9932 C.3     1  UNL1        0.0156
     24 C         141.1601  140.3806  169.7156 C.3     1  UNL1        0.0156
     25 H         137.6431  139.9054  169.3429 H       1  UNL1        0.1188
     26 H         137.9820  140.8089  170.7006 H       1  UNL1        0.1188
     27 C         143.0002  142.5154  158.4023 C.2     1  UNL1        0.0775
     28 O         142.0385  142.6619  157.2605 O.co2   1  UNL1       -0.5444
     29 O         144.4349  142.9182  158.2308 O.co2   1  UNL1       -0.5444
     30 C         139.6568  144.3370  162.2433 C.1     1  UNL1        0.1005
     31 N         139.1729  145.6766  161.7727 N.1     1  UNL1       -0.1908
@<TRIPOS>UNITY_ATOM_ATTR
28 1
charge -1
@<TRIPOS>BOND
     1     2     1    1
     2     2     3    1
     3     3     4    1
     4     4     5    1
     5     5     6   ar
     6     6    16    1
     7    16    17    1
     8    17    18    1
     9    18    19    1
    10    19    21    1
    11    21    22    1
    12    21    23    1
    13    23    24    1
    14    19    20    1
    15     6     7   ar
    16     7     8   ar
    17     8    30    1
    18    30    31    3
    19     8     9   ar
    20     9    10   ar
    21    10    11   ar
    22    11    27    1
    23    27    28   ar
    24    27    29   ar
    25    11    12   ar
    26    12    13    2
    27    12    14   ar
    28    14    15   ar
    29    14     2    1
    30    15     5   ar
    31    20    16    1
    32    15     9   ar
    33    24    21    1
    34    22    25    1
    35    22    26    1
@<TRIPOS>MOLECULE
*****
 31 35 0 0 0
SMALL
GASTEIGER

@<TRIPOS>ATOM
      1 C         140.2762  145.9146  162.0370 C.3     1  UNL1        0.0285
      2 C         140.4341  144.5688  162.6803 C.3     1  UNL1        0.1321
      3 C         139.7672  144.2820  163.9929 C.3     1  UNL1        0.2279
      4 O         139.9251  142.9362  164.6362 O.3     1  UNL1       -0.4707
      5 C         140.7500  141.8772  163.9670 C.ar    1  UNL1        0.1675
      6 C         140.9079  140.5313  164.6103 C.ar    1  UNL1        0.0844
      7 C         141.7328  139.4723  163.9410 C.ar    1  UNL1        0.0280
      8 C         142.3998  139.7591  162.6284 C.ar    1  UNL1        0.0712
      9 C         142.2419  141.1049  161.9851 C.ar    1  UNL1        0.0288
     10 C         142.9089  141.3916  160.6725 C.ar    1  UNL1        0.0081
     11 C         142.7509  142.7375  160.0292 C.ar    1  UNL1        0.0702
     12 C         141.9260  143.7965  160.6984 C.ar    1  UNL1        0.2620
     13 O         141.7681  145.1423  160.0551 O.2     1  UNL1       -0.2669
     14 N         141.2590  143.5097  162.0111 N.ar    1  UNL1       -0.2909
     15 C         141.4170  142.1639  162.6544 C.ar    1  UNL1        0.0985
     16 N         140.2410  140.2446  165.9228 N.pl3   1  UNL1       -0.3050
     17 C         138.9242  139.5507  166.1098 C.3     1  UNL1        0.0910
     18 C         138.6430  139.4786  167.5814 C.3     1  UNL1        0.0244
     19 C         139.7860  140.1279  168.3041 C.3     1  UNL1        0.0344
     20 C         140.7735  140.6013  167.2790 C.3     1  UNL1        0.0921
     21 C         139.9181  140.2775  169.7907 C.3     1  UNL1        0.0406
     22 N         138.5185  139.9402  170.2119 N.3     1  UNL1       -0.3231
     23 C         140.5363  140.5442  171.1311 C.3     1  UNL1        0.0156
     24 C         141.3636  140.6667  169.8858 C.3     1  UNL1        0.0156
     25 H         137.9570  139.7282  169.3872 H       1  UNL1        0.1188
     26 H         138.1112  140.7345  170.7055 H       1  UNL1        0.1188
     27 C         143.4180  143.0242  158.7166 C.2     1  UNL1        0.0775
     28 O         142.5974  143.4510  157.5357 O.co2   1  UNL1       -0.5444
     29 O         144.9056  142.8841  158.5849 O.co2   1  UNL1       -0.5444
     30 C         143.2247  138.7000  161.9591 C.1     1  UNL1        0.1005
     31 N         144.0497  137.6410  161.2899 N.1     1  UNL1       -0.1908
@<TRIPOS>UNITY_ATOM_ATTR
28 1
charge -1
@<TRIPOS>BOND
     1     2     1    1
     2     2     3    1
     3     3     4    1
     4     4     5    1
     5     5     6   ar
     6     6    16    1
     7    16    17    1
     8    17    18    1
     9    18    19    1
    10    19    21    1
    11    21    22    1
    12    21    23    1
    13    23    24    1
    14    19    20    1
    15     6     7   ar
    16     7     8   ar
    17     8    30    1
    18    30    31    3
    19     8     9   ar
    20     9    10   ar
    21    10    11   ar
    22    11    27    1
    23    27    28   ar
    24    27    29   ar
    25    11    12   ar
    26    12    13    2
    27    12    14   ar
    28    14    15   ar
    29    14     2    1
    30    15     5   ar
    31    20    16    1
    32    15     9   ar
    33    24    21    1
    34    22    25    1
    35    22    26    1
@<TRIPOS>MOLECULE
*****
 31 35 0 0 0
SMALL
GASTEIGER

@<TRIPOS>ATOM
      1 C         139.3198  144.0889  165.6173 C.3     1  UNL1        0.0285
      2 C         140.1533  142.9951  165.0181 C.3     1  UNL1        0.1321
      3 C         140.2511  142.8575  163.5277 C.3     1  UNL1        0.2279
      4 O         141.0846  141.7638  162.9285 O.3     1  UNL1       -0.4707
      5 C         141.8203  140.8076  163.8198 C.ar    1  UNL1        0.1675
      6 C         142.6538  139.7139  163.2206 C.ar    1  UNL1        0.0844
      7 C         143.3896  138.7578  164.1119 C.ar    1  UNL1        0.0280
      8 C         143.2919  138.8953  165.6024 C.ar    1  UNL1        0.0712
      9 C         142.4584  139.9891  166.2016 C.ar    1  UNL1        0.0288
     10 C         142.3606  140.1267  167.6920 C.ar    1  UNL1        0.0081
     11 C         141.5271  141.2204  168.2912 C.ar    1  UNL1        0.0702
     12 C         140.7913  142.1766  167.3999 C.ar    1  UNL1        0.2620
     13 O         139.9578  143.2703  167.9991 O.2     1  UNL1       -0.2669
     14 N         140.8891  142.0390  165.9094 N.ar    1  UNL1       -0.2909
     15 C         141.7226  140.9453  165.3102 C.ar    1  UNL1        0.0985
     16 N         142.7516  139.5763  161.7302 N.pl3   1  UNL1       -0.3050
     17 C         143.7082  140.3103  160.8378 C.3     1  UNL1        0.0910
     18 C         143.4577  139.8682  159.4265 C.3     1  UNL1        0.0244
     19 C         142.3463  138.8609  159.4465 C.3     1  UNL1        0.0344
     20 C         141.9099  138.6806  160.8703 C.3     1  UNL1        0.0921
     21 C         141.7722  138.1576  158.2525 C.3     1  UNL1        0.0406
     22 N         143.0203  137.5523  157.6817 N.3     1  UNL1       -0.3231
     23 C         140.7646  137.6645  157.2568 C.3     1  UNL1        0.0156
     24 C         140.3247  138.5186  158.4087 C.3     1  UNL1        0.0156
     25 H         143.8181  137.8046  158.2651 H       1  UNL1        0.1188
     26 H         143.1665  137.9037  156.7353 H       1  UNL1        0.1188
     27 C         141.4294  141.3580  169.7817 C.2     1  UNL1        0.0775
     28 O         142.5787  141.9275  170.5593 O.co2   1  UNL1       -0.5444
     29 O         140.1823  140.9261  170.4946 O.co2   1  UNL1       -0.5444
     30 C         144.0276  137.9392  166.4937 C.1     1  UNL1        0.1005
     31 N         144.7635  136.9831  167.3850 N.1     1  UNL1       -0.1908
@<TRIPOS>UNITY_ATOM_ATTR
28 1
charge -1
@<TRIPOS>BOND
     1     2     1    1
     2     2     3    1
     3     3     4    1
     4     4     5    1
     5     5     6   ar
     6     6    16    1
     7    16    17    1
     8    17    18    1
     9    18    19    1
    10    19    21    1
    11    21    22    1
    12    21    23    1
    13    23    24    1
    14    19    20    1
    15     6     7   ar
    16     7     8   ar
    17     8    30    1
    18    30    31    3
    19     8     9   ar
    20     9    10   ar
    21    10    11   ar
    22    11    27    1
    23    27    28   ar
    24    27    29   ar
    25    11    12   ar
    26    12    13    2
    27    12    14   ar
    28    14    15   ar
    29    14     2    1
    30    15     5   ar
    31    20    16    1
    32    15     9   ar
    33    24    21    1
    34    22    25    1
    35    22    26    1
@<TRIPOS>MOLECULE
*****
 31 35 0 0 0
SMALL
GASTEIGER

@<TRIPOS>ATOM
      1 C         143.8321  138.5203  165.9414 C.3     1  UNL1        0.0285
      2 C         143.1193  139.5817  165.1569 C.3     1  UNL1        0.1321
      3 C         143.3175  139.6781  163.6732 C.3     1  UNL1        0.2279
      4 O         142.6047  140.7395  162.8888 O.3     1  UNL1       -0.4707
      5 C         141.6937  141.7045  163.5880 C.ar    1  UNL1        0.1675
      6 C         140.9810  142.7659  162.8035 C.ar    1  UNL1        0.0844
      7 C         140.0700  143.7308  163.5028 C.ar    1  UNL1        0.0280
      8 C         139.8718  143.6344  164.9865 C.ar    1  UNL1        0.0712
      9 C         140.5845  142.5730  165.7710 C.ar    1  UNL1        0.0288
     10 C         140.3864  142.4766  167.2547 C.ar    1  UNL1        0.0081
     11 C         141.0991  141.4152  168.0391 C.ar    1  UNL1        0.0702
     12 C         142.0101  140.4502  167.3399 C.ar    1  UNL1        0.2620
     13 O         142.7229  139.3888  168.1244 O.2     1  UNL1       -0.2669
     14 N         142.2083  140.5466  165.8561 N.ar    1  UNL1       -0.2909
     15 C         141.4955  141.6080  165.0717 C.ar    1  UNL1        0.0985
     16 N         141.1791  142.8624  161.3199 N.pl3   1  UNL1       -0.3050
     17 C         140.8894  141.7827  160.3196 C.3     1  UNL1        0.0910
     18 C         141.2331  142.3084  158.9574 C.3     1  UNL1        0.0244
     19 C         141.7352  143.7131  159.1157 C.3     1  UNL1        0.0344
     20 C         141.7018  144.0554  160.5759 C.3     1  UNL1        0.0921
     21 C         142.1906  144.6167  158.0085 C.3     1  UNL1        0.0406
     22 N         143.4051  143.8684  157.5446 N.3     1  UNL1       -0.3231
     23 C         142.2243  145.7800  157.0623 C.3     1  UNL1        0.0156
     24 C         141.1343  145.6787  158.0878 C.3     1  UNL1        0.0156
     25 H         143.5212  143.0260  158.1078 H       1  UNL1        0.1188
     26 H         144.2290  144.4612  157.6458 H       1  UNL1        0.1188
     27 C         140.9009  141.3187  169.5229 C.2     1  UNL1        0.0775
     28 O         141.4318  142.3956  170.4220 O.co2   1  UNL1       -0.5444
     29 O         140.1717  140.1454  170.1074 O.co2   1  UNL1       -0.5444
     30 C         138.9608  144.5994  165.6858 C.1     1  UNL1        0.1005
     31 N         138.0497  145.5643  166.3850 N.1     1  UNL1       -0.1908
@<TRIPOS>UNITY_ATOM_ATTR
28 1
charge -1
@<TRIPOS>BOND
     1     2     1    1
     2     2     3    1
     3     3     4    1
     4     4     5    1
     5     5     6   ar
     6     6    16    1
     7    16    17    1
     8    17    18    1
     9    18    19    1
    10    19    21    1
    11    21    22    1
    12    21    23    1
    13    23    24    1
    14    19    20    1
    15     6     7   ar
    16     7     8   ar
    17     8    30    1
    18    30    31    3
    19     8     9   ar
    20     9    10   ar
    21    10    11   ar
    22    11    27    1
    23    27    28   ar
    24    27    29   ar
    25    11    12   ar
    26    12    13    2
    27    12    14   ar
    28    14    15   ar
    29    14     2    1
    30    15     5   ar
    31    20    16    1
    32    15     9   ar
    33    24    21    1
    34    22    25    1
    35    22    26    1
@<TRIPOS>MOLECULE
*****
 31 35 0 0 0
SMALL
GASTEIGER

@<TRIPOS>ATOM
      1 C         137.9648  138.9536  166.9516 C.3     1  UNL1        0.0285
      2 C         138.8293  139.7477  166.0178 C.3     1  UNL1        0.1321
      3 C         138.4789  139.8338  164.5619 C.3     1  UNL1        0.2279
      4 O         139.3434  140.6279  163.6280 O.3     1  UNL1       -0.4707
      5 C         140.5583  141.3359  164.1501 C.ar    1  UNL1        0.1675
      6 C         141.4228  142.1300  163.2163 C.ar    1  UNL1        0.0844
      7 C         142.6377  142.8381  163.7384 C.ar    1  UNL1        0.0280
      8 C         142.9882  142.7521  165.1944 C.ar    1  UNL1        0.0712
      9 C         142.1237  141.9580  166.1282 C.ar    1  UNL1        0.0288
     10 C         142.4740  141.8720  167.5841 C.ar    1  UNL1        0.0081
     11 C         141.6095  141.0779  168.5180 C.ar    1  UNL1        0.0702
     12 C         140.3947  140.3698  167.9959 C.ar    1  UNL1        0.2620
     13 O         139.5302  139.5757  168.9297 O.2     1  UNL1       -0.2669
     14 N         140.0442  140.4558  166.5399 N.ar    1  UNL1       -0.2909
     15 C         140.9087  141.2499  165.6060 C.ar    1  UNL1        0.0985
     16 N         141.0724  142.2161  161.7604 N.pl3   1  UNL1       -0.3050
     17 C         141.0758  141.0774  160.7838 C.3     1  UNL1        0.0910
     18 C         140.6626  141.6134  159.4452 C.3     1  UNL1        0.0244
     19 C         140.4038  143.0834  159.5943 C.3     1  UNL1        0.0344
     20 C         140.6571  143.4559  161.0252 C.3     1  UNL1        0.0921
     21 C         139.9682  144.0170  158.5041 C.3     1  UNL1        0.0406
     22 N         138.6507  143.3980  158.1421 N.3     1  UNL1       -0.3231
     23 C         139.9901  145.1655  157.5396 C.3     1  UNL1        0.0156
     24 C         141.1344  144.9601  158.4874 C.3     1  UNL1        0.0156
     25 H         138.4867  142.5800  158.7289 H       1  UNL1        0.1188
     26 H         138.6654  143.1159  157.1620 H       1  UNL1        0.1188
     27 C         141.9600  140.9919  169.9740 C.2     1  UNL1        0.0775
     28 O         141.0496  141.5962  171.0015 O.co2   1  UNL1       -0.5444
     29 O         143.2209  140.3016  170.4024 O.co2   1  UNL1       -0.5444
     30 C         144.2030  143.4602  165.7165 C.1     1  UNL1        0.1005
     31 N         145.4180  144.1684  166.2386 N.1     1  UNL1       -0.1908
@<TRIPOS>UNITY_ATOM_ATTR
28 1
charge -1
@<TRIPOS>BOND
     1     2     1    1
     2     2     3    1
     3     3     4    1
     4     4     5    1
     5     5     6   ar
     6     6    16    1
     7    16    17    1
     8    17    18    1
     9    18    19    1
    10    19    21    1
    11    21    22    1
    12    21    23    1
    13    23    24    1
    14    19    20    1
    15     6     7   ar
    16     7     8   ar
    17     8    30    1
    18    30    31    3
    19     8     9   ar
    20     9    10   ar
    21    10    11   ar
    22    11    27    1
    23    27    28   ar
    24    27    29   ar
    25    11    12   ar
    26    12    13    2
    27    12    14   ar
    28    14    15   ar
    29    14     2    1
    30    15     5   ar
    31    20    16    1
    32    15     9   ar
    33    24    21    1
    34    22    25    1
    35    22    26    1
